1

   Abaqus 3DEXPERIENCE R2019x                                  Date 11-Feb-2020   Time 10:42:31
   For use by QUEST INTEGRITY USA LLC under license from Dassault Systemes or its subsidiary.

 BISSHOPP AND DRUCKER -- LARGE DISPLACEMENT ANALYSIS            C2               
 LARGE ROTATION ANALYSIS                                                         
 STEP    1     INCREMENT     1     STEP TIME    0.00    


                        S T E P       1     S T A T I C   A N A L Y S I S


          LARGE ROTATION ANALYSIS                                                         

     AUTOMATIC TIME CONTROL WITH -
          A SUGGESTED INITIAL TIME INCREMENT OF                0.200    
          AND A TOTAL TIME PERIOD OF                            1.00    
          THE MINIMUM TIME INCREMENT ALLOWED IS                1.000E-02
          THE MAXIMUM TIME INCREMENT ALLOWED IS                 1.00    

     LINEAR EQUATION SOLVER TYPE         DIRECT SPARSE

 CONVERGENCE TOLERANCE PARAMETERS FOR FORCE    
     CRITERION FOR RESIDUAL FORCE     FOR A NONLINEAR PROBLEM          5.000E-03
     CRITERION FOR DISP.    CORRECTION IN A NONLINEAR PROBLEM          1.000E-02
     INITIAL VALUE OF TIME AVERAGE FORCE                               1.000E-02
     AVERAGE FORCE     IS TIME AVERAGE FORCE    
     ALTERNATE CRIT. FOR RESIDUAL FORCE     FOR A NONLINEAR PROBLEM    2.000E-02
     CRITERION FOR ZERO FORCE     RELATIVE TO TIME AVRG. FORCE         1.000E-05
     CRITERION FOR RESIDUAL FORCE     WHEN THERE IS ZERO FLUX          1.000E-05
     CRITERION FOR DISP.    CORRECTION WHEN THERE IS ZERO FLUX         1.000E-03
     CRITERION FOR RESIDUAL FORCE     FOR A LINEAR INCREMENT           1.000E-08
     FIELD CONVERSION RATIO                                             1.00    
     CRITERION FOR ZERO FORCE     REL. TO TIME AVRG. MAX. FORCE        1.000E-05
     CRITERION FOR ZERO DISP.    RELATIVE TO CHARACTERISTIC LENGTH     1.000E-08

 CONVERGENCE TOLERANCE PARAMETERS FOR MOMENT   
     CRITERION FOR RESIDUAL MOMENT    FOR A NONLINEAR PROBLEM          5.000E-03
     CRITERION FOR ROTATION CORRECTION IN A NONLINEAR PROBLEM          1.000E-02
     INITIAL VALUE OF TIME AVERAGE MOMENT                              1.000E-02
     AVERAGE MOMENT    IS TIME AVERAGE MOMENT   
     ALTERNATE CRIT. FOR RESIDUAL MOMENT    FOR A NONLINEAR PROBLEM    2.000E-02
     CRITERION FOR ZERO MOMENT    RELATIVE TO TIME AVRG. MOMENT        1.000E-05
     CRITERION FOR RESIDUAL MOMENT    WHEN THERE IS ZERO FLUX          1.000E-05
     CRITERION FOR ROTATION CORRECTION WHEN THERE IS ZERO FLUX         1.000E-03
     CRITERION FOR RESIDUAL MOMENT    FOR A LINEAR INCREMENT           1.000E-08
     FIELD CONVERSION RATIO                                             1.00    
     CRITERION FOR ZERO MOMENT    REL. TO TIME AVRG. MAX. MOMENT       1.000E-05

     VOLUMETRIC STRAIN COMPATIBILITY TOLERANCE FOR HYBRID SOLIDS       1.000E-05
     AXIAL STRAIN COMPATIBILITY TOLERANCE FOR HYBRID BEAMS             1.000E-05
     TRANS. SHEAR STRAIN COMPATIBILITY TOLERANCE FOR HYBRID BEAMS      1.000E-05
     SOFT CONTACT CONSTRAINT COMPATIBILITY TOLERANCE FOR P>P0          5.000E-03
     SOFT CONTACT CONSTRAINT COMPATIBILITY TOLERANCE FOR P=0.0         0.100    
     CONTACT FORCE ERROR TOLERANCE FOR CONVERT SDI=YES                 1.00    
     DISPLACEMENT COMPATIBILITY TOLERANCE FOR DCOUP ELEMENTS           1.000E-05
     ROTATION COMPATIBILITY TOLERANCE FOR DCOUP ELEMENTS               1.000E-05

 EQUILIBRIUM WILL BE CHECKED FOR SEVERE DISCONTINUITY ITERATIONS

 TIME INCREMENTATION CONTROL PARAMETERS:
     FIRST EQUILIBRIUM ITERATION FOR CONSECUTIVE DIVERGENCE CHECK              4
     EQUILIBRIUM ITERATION AT WHICH LOG. CONVERGENCE RATE CHECK BEGINS         8
     EQUILIBRIUM ITERATION AFTER WHICH ALTERNATE RESIDUAL IS USED              9
     MAXIMUM EQUILIBRIUM ITERATIONS ALLOWED                                   16
     EQUILIBRIUM ITERATION COUNT FOR CUT-BACK IN NEXT INCREMENT               10
     MAXIMUM EQUILIB. ITERS IN TWO INCREMENTS FOR TIME INCREMENT INCREASE      4
     MAXIMUM ITERATIONS FOR SEVERE DISCONTINUITIES                            50
     MAXIMUM ATTEMPTS ALLOWED IN AN INCREMENT                                  5
     MAXIMUM DISCON. ITERS IN TWO INCREMENTS FOR TIME INCREMENT INCREASE      50
     MAXIMUM CONTACT AUGMENTATIONS FOR *SURFACE BEHAVIOR,AUGMENTED LAGRANGE   50
     CUT-BACK FACTOR AFTER DIVERGENCE                                 0.2500    
     CUT-BACK FACTOR FOR TOO SLOW CONVERGENCE                         0.5000    
     CUT-BACK FACTOR AFTER TOO MANY EQUILIBRIUM ITERATIONS            0.7500    
     CUT-BACK FACTOR AFTER TOO MANY SEVERE DISCONTINUITY ITERATIONS   0.2500    
     CUT-BACK FACTOR AFTER PROBLEMS IN ELEMENT ASSEMBLY               0.2500    
     INCREASE FACTOR AFTER TWO INCREMENTS THAT CONVERGE QUICKLY        1.500    
     MAX. TIME INCREMENT INCREASE FACTOR ALLOWED                       1.500    
     MAX. TIME INCREMENT INCREASE FACTOR ALLOWED (DYNAMICS)            1.250    
     MAX. TIME INCREMENT INCREASE FACTOR ALLOWED (DIFFUSION)           2.000    
     MINIMUM TIME INCREMENT RATIO FOR EXTRAPOLATION TO OCCUR          0.1000    
     MAX. RATIO OF TIME INCREMENT TO STABILITY LIMIT                   1.000    
     FRACTION OF STABILITY LIMIT FOR NEW TIME INCREMENT               0.9500    
     TIME INCREMENT INCREASE FACTOR BEFORE A TIME POINT                1.000    
     GLOBAL STABILIZATION CONTROL IS NOT USED

          PRINT OF INCREMENT NUMBER, TIME, ETC., EVERY    1  INCREMENTS

     RESTART FILE WILL BE WRITTEN EVERY     2  INCREMENTS

     THE MAXIMUM NUMBER OF INCREMENTS IN THIS STEP IS                      25

          LARGE DISPLACEMENT THEORY WILL BE USED

     LINEAR EXTRAPOLATION WILL BE USED

     CHARACTERISTIC ELEMENT LENGTH      20.0    

     DETAILS REGARDING ACTUAL SOLUTION WAVEFRONT REQUESTED

     DETAILED OUTPUT OF DIAGNOSTICS TO DATABASE REQUESTED

     PRINT OF INCREMENT NUMBER, TIME, ETC., TO THE MESSAGE FILE EVERY     1  INCREMENTS

     COLLECTING MODEL CONSTRAINT INFORMATION FOR OVERCONSTRAINT CHECKS

     COLLECTING STEP CONSTRAINT INFORMATION FOR OVERCONSTRAINT CHECKS


  INCREMENT     1 STARTS. ATTEMPT NUMBER  1, TIME INCREMENT  0.200    

  NUMBER OF EQUATIONS =        18     NUMBER OF RHS =    1
  NUMBER OF FLOATING PT. OPERATIONS =  6.33E+02

     CHECK POINT   START OF SOLVER    

     CHECK POINT  END OF SOLVER       

       ELAPSED USER TIME (SEC)      =   0.0000    
       ELAPSED SYSTEM TIME (SEC)    =   0.0000    
       ELAPSED TOTAL CPU TIME (SEC) =   0.0000    
       ELAPSED WALLCLOCK TIME (SEC) =          0

               CONVERGENCE CHECKS FOR EQUILIBRIUM ITERATION     1


 AVERAGE FORCE                      7.891E+06   TIME AVG. FORCE       7.891E+06
 LARGEST RESIDUAL FORCE             1.457E+07   AT NODE          1   DOF  1
 LARGEST INCREMENT OF DISP.          66.4       AT NODE          1   DOF  2
 LARGEST CORRECTION TO DISP.         66.4       AT NODE          1   DOF  2
          FORCE     EQUILIBRIUM NOT ACHIEVED WITHIN TOLERANCE.

 AVERAGE MOMENT                     8.189E+05   TIME AVG. MOMENT      8.189E+05
 LARGEST RESIDUAL MOMENT            2.710E+06   AT NODE          2   DOF  6
 LARGEST INCREMENT OF ROTATION      -1.00       AT NODE          1   DOF  6
 LARGEST CORRECTION TO ROTATION     -1.00       AT NODE          1   DOF  6
          MOMENT    EQUILIBRIUM NOT ACHIEVED WITHIN TOLERANCE.

  NUMBER OF EQUATIONS =        18     NUMBER OF RHS =    1
  NUMBER OF FLOATING PT. OPERATIONS =  6.33E+02

     CHECK POINT   START OF SOLVER    

     CHECK POINT  END OF SOLVER       

       ELAPSED USER TIME (SEC)      =  1.00000E-02
       ELAPSED SYSTEM TIME (SEC)    =   0.0000    
       ELAPSED TOTAL CPU TIME (SEC) =  1.00000E-02
       ELAPSED WALLCLOCK TIME (SEC) =          0

               CONVERGENCE CHECKS FOR EQUILIBRIUM ITERATION     2


 AVERAGE FORCE                      1.343E+06   TIME AVG. FORCE       1.343E+06
 LARGEST RESIDUAL FORCE             3.221E+06   AT NODE          1   DOF  2
 LARGEST INCREMENT OF DISP.          49.9       AT NODE          1   DOF  2
 LARGEST CORRECTION TO DISP.         19.8       AT NODE          1   DOF  1
          FORCE     EQUILIBRIUM NOT ACHIEVED WITHIN TOLERANCE.

 AVERAGE MOMENT                     3.858E+05   TIME AVG. MOMENT      3.858E+05
 LARGEST RESIDUAL MOMENT            1.226E+06   AT NODE          2   DOF  6
 LARGEST INCREMENT OF ROTATION     -0.861       AT NODE          1   DOF  6
 LARGEST CORRECTION TO ROTATION     0.139       AT NODE          1   DOF  6
          MOMENT    EQUILIBRIUM NOT ACHIEVED WITHIN TOLERANCE.

  NUMBER OF EQUATIONS =        18     NUMBER OF RHS =    1
  NUMBER OF FLOATING PT. OPERATIONS =  6.33E+02

     CHECK POINT   START OF SOLVER    

     CHECK POINT  END OF SOLVER       

       ELAPSED USER TIME (SEC)      =   0.0000    
       ELAPSED SYSTEM TIME (SEC)    =   0.0000    
       ELAPSED TOTAL CPU TIME (SEC) =   0.0000    
       ELAPSED WALLCLOCK TIME (SEC) =          0
 

 ***WARNING: THE SYSTEM MATRIX HAS 4 NEGATIVE EIGENVALUES.

     NEGATIVE EIGENVALUES MEAN THAT THE SYSTEM MATRIX IS NOT 
     POSITIVE DEFINITE:
     FOR EXAMPLE, A BIFURCATION (BUCKLING) LOAD MAY HAVE BEEN EXCEEDED.

               CONVERGENCE CHECKS FOR EQUILIBRIUM ITERATION     3


 AVERAGE FORCE                      3.826E+04   TIME AVG. FORCE       3.826E+04
 LARGEST RESIDUAL FORCE            -1.164E+05   AT NODE          1   DOF  1
 LARGEST INCREMENT OF DISP.          52.4       AT NODE          1   DOF  2
 LARGEST CORRECTION TO DISP.         2.53       AT NODE          1   DOF  2
          FORCE     EQUILIBRIUM NOT ACHIEVED WITHIN TOLERANCE.

 AVERAGE MOMENT                     1.659E+05   TIME AVG. MOMENT      1.659E+05
 LARGEST RESIDUAL MOMENT           -7.146E+04   AT NODE          2   DOF  6
 LARGEST INCREMENT OF ROTATION     -0.782       AT NODE          1   DOF  6
 LARGEST CORRECTION TO ROTATION     7.932E-02   AT NODE          1   DOF  6
          MOMENT    EQUILIBRIUM NOT ACHIEVED WITHIN TOLERANCE.

  NUMBER OF EQUATIONS =        18     NUMBER OF RHS =    1
  NUMBER OF FLOATING PT. OPERATIONS =  6.33E+02

     CHECK POINT   START OF SOLVER    

     CHECK POINT  END OF SOLVER       

       ELAPSED USER TIME (SEC)      =   0.0000    
       ELAPSED SYSTEM TIME (SEC)    =   0.0000    
       ELAPSED TOTAL CPU TIME (SEC) =   0.0000    
       ELAPSED WALLCLOCK TIME (SEC) =          0
 

 ***WARNING: THE SYSTEM MATRIX HAS 1 NEGATIVE EIGENVALUES.
             EXPLANATIONS ARE SUGGESTED AFTER THE FIRST OCCURRENCE OF THIS MESSAGE.

               CONVERGENCE CHECKS FOR EQUILIBRIUM ITERATION     4


 AVERAGE FORCE                      7.330E+04   TIME AVG. FORCE       7.330E+04
 LARGEST RESIDUAL FORCE            -1.916E+05   AT NODE          5   DOF  1
 LARGEST INCREMENT OF DISP.          48.6       AT NODE          1   DOF  2
 LARGEST CORRECTION TO DISP.        -4.27       AT NODE          2   DOF  2
          FORCE     EQUILIBRIUM NOT ACHIEVED WITHIN TOLERANCE.

 AVERAGE MOMENT                     1.669E+05   TIME AVG. MOMENT      1.669E+05
 LARGEST RESIDUAL MOMENT           -4.470E+03   AT NODE          4   DOF  6
 LARGEST INCREMENT OF ROTATION     -0.836       AT NODE          1   DOF  6
 LARGEST CORRECTION TO ROTATION     9.487E-02   AT NODE          4   DOF  6
          MOMENT    EQUILIBRIUM NOT ACHIEVED WITHIN TOLERANCE.

  NUMBER OF EQUATIONS =        18     NUMBER OF RHS =    1
  NUMBER OF FLOATING PT. OPERATIONS =  6.33E+02

     CHECK POINT   START OF SOLVER    

     CHECK POINT  END OF SOLVER       

       ELAPSED USER TIME (SEC)      =   0.0000    
       ELAPSED SYSTEM TIME (SEC)    =   0.0000    
       ELAPSED TOTAL CPU TIME (SEC) =   0.0000    
       ELAPSED WALLCLOCK TIME (SEC) =          0

               CONVERGENCE CHECKS FOR EQUILIBRIUM ITERATION     5


 AVERAGE FORCE                      8.173E+03   TIME AVG. FORCE       8.173E+03
 LARGEST RESIDUAL FORCE             3.077E+04   AT NODE          2   DOF  2
 LARGEST INCREMENT OF DISP.          48.1       AT NODE          1   DOF  2
 LARGEST CORRECTION TO DISP.       -0.466       AT NODE          1   DOF  2
          FORCE     EQUILIBRIUM NOT ACHIEVED WITHIN TOLERANCE.

 AVERAGE MOMENT                     1.569E+05   TIME AVG. MOMENT      1.569E+05
 LARGEST RESIDUAL MOMENT           -1.068E+03   AT NODE          5   DOF  6
 LARGEST INCREMENT OF ROTATION     -0.784       AT NODE          1   DOF  6
 LARGEST CORRECTION TO ROTATION     5.163E-02   AT NODE          1   DOF  6
          MOMENT    EQUILIBRIUM NOT ACHIEVED WITHIN TOLERANCE.

  NUMBER OF EQUATIONS =        18     NUMBER OF RHS =    1
  NUMBER OF FLOATING PT. OPERATIONS =  6.33E+02

     CHECK POINT   START OF SOLVER    

     CHECK POINT  END OF SOLVER       

       ELAPSED USER TIME (SEC)      =   0.0000    
       ELAPSED SYSTEM TIME (SEC)    =   0.0000    
       ELAPSED TOTAL CPU TIME (SEC) =   0.0000    
       ELAPSED WALLCLOCK TIME (SEC) =          0

               CONVERGENCE CHECKS FOR EQUILIBRIUM ITERATION     6


 AVERAGE FORCE                      6.743E+03   TIME AVG. FORCE       6.743E+03
 LARGEST RESIDUAL FORCE             1.098E+04   AT NODE          3   DOF  1
 LARGEST INCREMENT OF DISP.          49.2       AT NODE          1   DOF  2
 LARGEST CORRECTION TO DISP.         1.10       AT NODE          2   DOF  2
          FORCE     EQUILIBRIUM NOT ACHIEVED WITHIN TOLERANCE.

 AVERAGE MOMENT                     1.563E+05   TIME AVG. MOMENT      1.563E+05
 LARGEST RESIDUAL MOMENT             81.0       AT NODE          4   DOF  6
 LARGEST INCREMENT OF ROTATION     -0.782       AT NODE          1   DOF  6
 LARGEST CORRECTION TO ROTATION    -2.453E-02   AT NODE          4   DOF  6
 ESTIMATE OF ROTATION CORRECTION    1.859E-03
 MOMENT    EQUILIB. ACCEPTED BASED ON SMALL RESIDUAL AND ESTIMATED CORRECTION

  NUMBER OF EQUATIONS =        18     NUMBER OF RHS =    1
  NUMBER OF FLOATING PT. OPERATIONS =  6.33E+02

     CHECK POINT   START OF SOLVER    

     CHECK POINT  END OF SOLVER       

       ELAPSED USER TIME (SEC)      =  1.00000E-02
       ELAPSED SYSTEM TIME (SEC)    =   0.0000    
       ELAPSED TOTAL CPU TIME (SEC) =  1.00000E-02
       ELAPSED WALLCLOCK TIME (SEC) =          0

               CONVERGENCE CHECKS FOR EQUILIBRIUM ITERATION     7


 AVERAGE FORCE                      2.117E+03   TIME AVG. FORCE       2.117E+03
 LARGEST RESIDUAL FORCE              54.9       AT NODE          1   DOF  1
 LARGEST INCREMENT OF DISP.          49.3       AT NODE          1   DOF  2
 LARGEST CORRECTION TO DISP.        6.670E-02   AT NODE          1   DOF  2
          FORCE     EQUILIBRIUM NOT ACHIEVED WITHIN TOLERANCE.

 AVERAGE MOMENT                     1.567E+05   TIME AVG. MOMENT      1.567E+05
 LARGEST RESIDUAL MOMENT            -45.9       AT NODE          5   DOF  6
 LARGEST INCREMENT OF ROTATION     -0.783       AT NODE          1   DOF  6
 LARGEST CORRECTION TO ROTATION    -1.670E-03   AT NODE          1   DOF  6
          THE MOMENT    EQUILIBRIUM EQUATIONS HAVE CONVERGED

  NUMBER OF EQUATIONS =        18     NUMBER OF RHS =    1
  NUMBER OF FLOATING PT. OPERATIONS =  6.33E+02

     CHECK POINT   START OF SOLVER    

     CHECK POINT  END OF SOLVER       

       ELAPSED USER TIME (SEC)      =   0.0000    
       ELAPSED SYSTEM TIME (SEC)    =   0.0000    
       ELAPSED TOTAL CPU TIME (SEC) =   0.0000    
       ELAPSED WALLCLOCK TIME (SEC) =          0

               CONVERGENCE CHECKS FOR EQUILIBRIUM ITERATION     8


 AVERAGE FORCE                      2.109E+03   TIME AVG. FORCE       2.109E+03
 LARGEST RESIDUAL FORCE              21.4       AT NODE          1   DOF  1
 LARGEST INCREMENT OF DISP.          49.3       AT NODE          1   DOF  2
 LARGEST CORRECTION TO DISP.        6.251E-02   AT NODE          1   DOF  2
          FORCE     EQUILIBRIUM NOT ACHIEVED WITHIN TOLERANCE.

 AVERAGE MOMENT                     1.568E+05   TIME AVG. MOMENT      1.568E+05
 LARGEST RESIDUAL MOMENT           -0.187       AT NODE          3   DOF  6
 LARGEST INCREMENT OF ROTATION     -0.784       AT NODE          1   DOF  6
 LARGEST CORRECTION TO ROTATION    -1.030E-03   AT NODE          3   DOF  6
          THE MOMENT    EQUILIBRIUM EQUATIONS HAVE CONVERGED

  NUMBER OF EQUATIONS =        18     NUMBER OF RHS =    1
  NUMBER OF FLOATING PT. OPERATIONS =  6.33E+02

     CHECK POINT   START OF SOLVER    

     CHECK POINT  END OF SOLVER       

       ELAPSED USER TIME (SEC)      =   0.0000    
       ELAPSED SYSTEM TIME (SEC)    =   0.0000    
       ELAPSED TOTAL CPU TIME (SEC) =   0.0000    
       ELAPSED WALLCLOCK TIME (SEC) =          0

               CONVERGENCE CHECKS FOR EQUILIBRIUM ITERATION     9


 AVERAGE FORCE                      2.095E+03   TIME AVG. FORCE       2.095E+03
 LARGEST RESIDUAL FORCE            -2.808E-03   AT NODE          1   DOF  2
 LARGEST INCREMENT OF DISP.          49.3       AT NODE          1   DOF  2
 LARGEST CORRECTION TO DISP.        2.764E-04   AT NODE          1   DOF  2
          THE FORCE     EQUILIBRIUM EQUATIONS HAVE CONVERGED

 AVERAGE MOMENT                     1.569E+05   TIME AVG. MOMENT      1.569E+05
 LARGEST RESIDUAL MOMENT           -6.591E-02   AT NODE          4   DOF  6
 LARGEST INCREMENT OF ROTATION     -0.784       AT NODE          1   DOF  6
 LARGEST CORRECTION TO ROTATION    -6.542E-06   AT NODE          1   DOF  6
          THE MOMENT    EQUILIBRIUM EQUATIONS HAVE CONVERGED

 ITERATION SUMMARY FOR THE INCREMENT:   9 TOTAL ITERATIONS, OF WHICH
   0 ARE SEVERE DISCONTINUITY ITERATIONS AND  9 ARE EQUILIBRIUM ITERATIONS.

 TIME INCREMENT COMPLETED  0.200    ,  FRACTION OF STEP COMPLETED  0.200    
 STEP TIME COMPLETED       0.200    ,  TOTAL TIME COMPLETED        0.200    


  INCREMENT     2 STARTS. ATTEMPT NUMBER  1, TIME INCREMENT  0.200    

  NUMBER OF EQUATIONS =        18     NUMBER OF RHS =    1
  NUMBER OF FLOATING PT. OPERATIONS =  6.33E+02

     CHECK POINT   START OF SOLVER    

     CHECK POINT  END OF SOLVER       

       ELAPSED USER TIME (SEC)      =   0.0000    
       ELAPSED SYSTEM TIME (SEC)    =   0.0000    
       ELAPSED TOTAL CPU TIME (SEC) =   0.0000    
       ELAPSED WALLCLOCK TIME (SEC) =          0

               CONVERGENCE CHECKS FOR EQUILIBRIUM ITERATION     1


 AVERAGE FORCE                      6.116E+07   TIME AVG. FORCE       3.058E+07
 LARGEST RESIDUAL FORCE            -1.363E+08   AT NODE          1   DOF  1
 LARGEST INCREMENT OF DISP.          577.       AT NODE          1   DOF  1
 LARGEST CORRECTION TO DISP.         561.       AT NODE          1   DOF  1
          FORCE     EQUILIBRIUM NOT ACHIEVED WITHIN TOLERANCE.

 AVERAGE MOMENT                     1.269E+06   TIME AVG. MOMENT      7.127E+05
 LARGEST RESIDUAL MOMENT            4.976E+06   AT NODE          5   DOF  6
 LARGEST INCREMENT OF ROTATION      -8.41       AT NODE          1   DOF  6
 LARGEST CORRECTION TO ROTATION     -7.62       AT NODE          1   DOF  6
          MOMENT    EQUILIBRIUM NOT ACHIEVED WITHIN TOLERANCE.

  NUMBER OF EQUATIONS =        18     NUMBER OF RHS =    1
  NUMBER OF FLOATING PT. OPERATIONS =  6.33E+02

     CHECK POINT   START OF SOLVER    

     CHECK POINT  END OF SOLVER       

       ELAPSED USER TIME (SEC)      =   0.0000    
       ELAPSED SYSTEM TIME (SEC)    =   0.0000    
       ELAPSED TOTAL CPU TIME (SEC) =   0.0000    
       ELAPSED WALLCLOCK TIME (SEC) =          0

               CONVERGENCE CHECKS FOR EQUILIBRIUM ITERATION     2


 AVERAGE FORCE                      5.724E+07   TIME AVG. FORCE       2.862E+07
 LARGEST RESIDUAL FORCE             1.567E+08   AT NODE          1   DOF  1
 LARGEST INCREMENT OF DISP.         -529.       AT NODE          1   DOF  1
 LARGEST CORRECTION TO DISP.       -1.107E+03   AT NODE          1   DOF  1
          FORCE     EQUILIBRIUM NOT ACHIEVED WITHIN TOLERANCE.

 AVERAGE MOMENT                     3.836E+06   TIME AVG. MOMENT      1.996E+06
 LARGEST RESIDUAL MOMENT           -1.863E+07   AT NODE          5   DOF  6
 LARGEST INCREMENT OF ROTATION      -8.67       AT NODE          1   DOF  6
 LARGEST CORRECTION TO ROTATION      1.14       AT NODE          2   DOF  6
          MOMENT    EQUILIBRIUM NOT ACHIEVED WITHIN TOLERANCE.

  NUMBER OF EQUATIONS =        18     NUMBER OF RHS =    1
  NUMBER OF FLOATING PT. OPERATIONS =  6.33E+02

     CHECK POINT   START OF SOLVER    

     CHECK POINT  END OF SOLVER       

       ELAPSED USER TIME (SEC)      =   0.0000    
       ELAPSED SYSTEM TIME (SEC)    =   0.0000    
       ELAPSED TOTAL CPU TIME (SEC) =   0.0000    
       ELAPSED WALLCLOCK TIME (SEC) =          0
 

 ***WARNING: THE SYSTEM MATRIX HAS 2 NEGATIVE EIGENVALUES.
             EXPLANATIONS ARE SUGGESTED AFTER THE FIRST OCCURRENCE OF THIS MESSAGE.

               CONVERGENCE CHECKS FOR EQUILIBRIUM ITERATION     3


 AVERAGE FORCE                      5.782E+07   TIME AVG. FORCE       2.891E+07
 LARGEST RESIDUAL FORCE            -1.898E+08   AT NODE          1   DOF  1
 LARGEST INCREMENT OF DISP.          975.       AT NODE          1   DOF  1
 LARGEST CORRECTION TO DISP.        1.505E+03   AT NODE          1   DOF  1
          FORCE     EQUILIBRIUM NOT ACHIEVED WITHIN TOLERANCE.

 AVERAGE MOMENT                     2.776E+06   TIME AVG. MOMENT      1.466E+06
 LARGEST RESIDUAL MOMENT           -2.498E+06   AT NODE          4   DOF  6
 LARGEST INCREMENT OF ROTATION      -8.79       AT NODE          2   DOF  6
 LARGEST CORRECTION TO ROTATION     -2.11       AT NODE          2   DOF  6
          MOMENT    EQUILIBRIUM NOT ACHIEVED WITHIN TOLERANCE.

  NUMBER OF EQUATIONS =        18     NUMBER OF RHS =    1
  NUMBER OF FLOATING PT. OPERATIONS =  6.33E+02

     CHECK POINT   START OF SOLVER    

     CHECK POINT  END OF SOLVER       

       ELAPSED USER TIME (SEC)      =   0.0000    
       ELAPSED SYSTEM TIME (SEC)    =   0.0000    
       ELAPSED TOTAL CPU TIME (SEC) =   0.0000    
       ELAPSED WALLCLOCK TIME (SEC) =          0
 

 ***WARNING: THE SYSTEM MATRIX HAS 1 NEGATIVE EIGENVALUES.
             EXPLANATIONS ARE SUGGESTED AFTER THE FIRST OCCURRENCE OF THIS MESSAGE.

               CONVERGENCE CHECKS FOR EQUILIBRIUM ITERATION     4


 AVERAGE FORCE                      6.150E+07   TIME AVG. FORCE       3.075E+07
 LARGEST RESIDUAL FORCE             2.387E+08   AT NODE          1   DOF  1
 LARGEST INCREMENT OF DISP.        -1.853E+03   AT NODE          1   DOF  1
 LARGEST CORRECTION TO DISP.       -2.829E+03   AT NODE          1   DOF  1
          FORCE     EQUILIBRIUM NOT ACHIEVED WITHIN TOLERANCE.

 AVERAGE MOMENT                     2.846E+06   TIME AVG. MOMENT      1.502E+06
 LARGEST RESIDUAL MOMENT            5.504E+06   AT NODE          4   DOF  6
 LARGEST INCREMENT OF ROTATION      -12.0       AT NODE          1   DOF  6
 LARGEST CORRECTION TO ROTATION     -3.37       AT NODE          1   DOF  6
          MOMENT    EQUILIBRIUM NOT ACHIEVED WITHIN TOLERANCE.
 

 ***NOTE: THE SOLUTION APPEARS TO BE DIVERGING. CONVERGENCE IS JUDGED UNLIKELY.


  INCREMENT     2 STARTS. ATTEMPT NUMBER  2, TIME INCREMENT  5.000E-02

  NUMBER OF EQUATIONS =        18     NUMBER OF RHS =    1
  NUMBER OF FLOATING PT. OPERATIONS =  6.33E+02

     CHECK POINT   START OF SOLVER    

     CHECK POINT  END OF SOLVER       

       ELAPSED USER TIME (SEC)      =   0.0000    
       ELAPSED SYSTEM TIME (SEC)    =   0.0000    
       ELAPSED TOTAL CPU TIME (SEC) =   0.0000    
       ELAPSED WALLCLOCK TIME (SEC) =          0

               CONVERGENCE CHECKS FOR EQUILIBRIUM ITERATION     1


 AVERAGE FORCE                      3.148E+05   TIME AVG. FORCE       1.585E+05
 LARGEST RESIDUAL FORCE            -1.087E+06   AT NODE          1   DOF  2
 LARGEST INCREMENT OF DISP.          16.9       AT NODE          1   DOF  2
 LARGEST CORRECTION TO DISP.         11.9       AT NODE          1   DOF  1
          FORCE     EQUILIBRIUM NOT ACHIEVED WITHIN TOLERANCE.

 AVERAGE MOMENT                     2.542E+05   TIME AVG. MOMENT      2.055E+05
 LARGEST RESIDUAL MOMENT           -2.096E+05   AT NODE          2   DOF  6
 LARGEST INCREMENT OF ROTATION     -0.374       AT NODE          1   DOF  6
 LARGEST CORRECTION TO ROTATION    -0.177       AT NODE          1   DOF  6
          MOMENT    EQUILIBRIUM NOT ACHIEVED WITHIN TOLERANCE.

  NUMBER OF EQUATIONS =        18     NUMBER OF RHS =    1
  NUMBER OF FLOATING PT. OPERATIONS =  6.33E+02

     CHECK POINT   START OF SOLVER    

     CHECK POINT  END OF SOLVER       

       ELAPSED USER TIME (SEC)      =   0.0000    
       ELAPSED SYSTEM TIME (SEC)    =   0.0000    
       ELAPSED TOTAL CPU TIME (SEC) =   0.0000    
       ELAPSED WALLCLOCK TIME (SEC) =          0

               CONVERGENCE CHECKS FOR EQUILIBRIUM ITERATION     2


 AVERAGE FORCE                      3.525E+03   TIME AVG. FORCE       2.810E+03
 LARGEST RESIDUAL FORCE             9.248E+03   AT NODE          1   DOF  2
 LARGEST INCREMENT OF DISP.          16.2       AT NODE          1   DOF  1
 LARGEST CORRECTION TO DISP.       -0.744       AT NODE          1   DOF  2
          FORCE     EQUILIBRIUM NOT ACHIEVED WITHIN TOLERANCE.

 AVERAGE MOMENT                     2.341E+05   TIME AVG. MOMENT      1.955E+05
 LARGEST RESIDUAL MOMENT           -4.869E+03   AT NODE          2   DOF  6
 LARGEST INCREMENT OF ROTATION     -0.383       AT NODE          1   DOF  6
 LARGEST CORRECTION TO ROTATION    -9.729E-03   AT NODE          1   DOF  6
          MOMENT    EQUILIBRIUM NOT ACHIEVED WITHIN TOLERANCE.

  NUMBER OF EQUATIONS =        18     NUMBER OF RHS =    1
  NUMBER OF FLOATING PT. OPERATIONS =  6.33E+02

     CHECK POINT   START OF SOLVER    

     CHECK POINT  END OF SOLVER       

       ELAPSED USER TIME (SEC)      =   0.0000    
       ELAPSED SYSTEM TIME (SEC)    =   0.0000    
       ELAPSED TOTAL CPU TIME (SEC) =   0.0000    
       ELAPSED WALLCLOCK TIME (SEC) =          0

               CONVERGENCE CHECKS FOR EQUILIBRIUM ITERATION     3


 AVERAGE FORCE                      6.201E+06   TIME AVG. FORCE       3.101E+06
 LARGEST RESIDUAL FORCE             2.055E+07   AT NODE          1   DOF  1
 LARGEST INCREMENT OF DISP.         -30.6       AT NODE          1   DOF  1
 LARGEST CORRECTION TO DISP.        -46.8       AT NODE          1   DOF  1
          FORCE     EQUILIBRIUM NOT ACHIEVED WITHIN TOLERANCE.

 AVERAGE MOMENT                     7.157E+05   TIME AVG. MOMENT      4.363E+05
 LARGEST RESIDUAL MOMENT           -2.719E+06   AT NODE          2   DOF  6
 LARGEST INCREMENT OF ROTATION      0.694       AT NODE          1   DOF  6
 LARGEST CORRECTION TO ROTATION      1.08       AT NODE          1   DOF  6
          MOMENT    EQUILIBRIUM NOT ACHIEVED WITHIN TOLERANCE.

  NUMBER OF EQUATIONS =        18     NUMBER OF RHS =    1
  NUMBER OF FLOATING PT. OPERATIONS =  6.33E+02

     CHECK POINT   START OF SOLVER    

     CHECK POINT  END OF SOLVER       

       ELAPSED USER TIME (SEC)      =   0.0000    
       ELAPSED SYSTEM TIME (SEC)    =   0.0000    
       ELAPSED TOTAL CPU TIME (SEC) =   0.0000    
       ELAPSED WALLCLOCK TIME (SEC) =          0

               CONVERGENCE CHECKS FOR EQUILIBRIUM ITERATION     4


 AVERAGE FORCE                      1.080E+06   TIME AVG. FORCE       5.412E+05
 LARGEST RESIDUAL FORCE            -5.058E+06   AT NODE          1   DOF  1
 LARGEST INCREMENT OF DISP.         -24.3       AT NODE          1   DOF  2
 LARGEST CORRECTION TO DISP.         21.3       AT NODE          1   DOF  1
          FORCE     EQUILIBRIUM NOT ACHIEVED WITHIN TOLERANCE.

 AVERAGE MOMENT                     3.408E+05   TIME AVG. MOMENT      2.488E+05
 LARGEST RESIDUAL MOMENT           -1.290E+06   AT NODE          2   DOF  6
 LARGEST INCREMENT OF ROTATION      0.538       AT NODE          1   DOF  6
 LARGEST CORRECTION TO ROTATION    -0.157       AT NODE          1   DOF  6
          MOMENT    EQUILIBRIUM NOT ACHIEVED WITHIN TOLERANCE.

  NUMBER OF EQUATIONS =        18     NUMBER OF RHS =    1
  NUMBER OF FLOATING PT. OPERATIONS =  6.33E+02

     CHECK POINT   START OF SOLVER    

     CHECK POINT  END OF SOLVER       

       ELAPSED USER TIME (SEC)      =  1.00000E-02
       ELAPSED SYSTEM TIME (SEC)    =   0.0000    
       ELAPSED TOTAL CPU TIME (SEC) =  1.00000E-02
       ELAPSED WALLCLOCK TIME (SEC) =          0
 

 ***WARNING: THE SYSTEM MATRIX HAS 3 NEGATIVE EIGENVALUES.
             EXPLANATIONS ARE SUGGESTED AFTER THE FIRST OCCURRENCE OF THIS MESSAGE.

               CONVERGENCE CHECKS FOR EQUILIBRIUM ITERATION     5


 AVERAGE FORCE                      3.651E+04   TIME AVG. FORCE       1.930E+04
 LARGEST RESIDUAL FORCE            -2.070E+05   AT NODE          1   DOF  1
 LARGEST INCREMENT OF DISP.         -23.3       AT NODE          1   DOF  2
 LARGEST CORRECTION TO DISP.        -2.66       AT NODE          1   DOF  1
          FORCE     EQUILIBRIUM NOT ACHIEVED WITHIN TOLERANCE.

 AVERAGE MOMENT                     8.254E+04   TIME AVG. MOMENT      1.197E+05
 LARGEST RESIDUAL MOMENT            8.597E+04   AT NODE          2   DOF  6
 LARGEST INCREMENT OF ROTATION      0.437       AT NODE          1   DOF  6
 LARGEST CORRECTION TO ROTATION    -0.100       AT NODE          1   DOF  6
          MOMENT    EQUILIBRIUM NOT ACHIEVED WITHIN TOLERANCE.

  NUMBER OF EQUATIONS =        18     NUMBER OF RHS =    1
  NUMBER OF FLOATING PT. OPERATIONS =  6.33E+02

     CHECK POINT   START OF SOLVER    

     CHECK POINT  END OF SOLVER       

       ELAPSED USER TIME (SEC)      =   0.0000    
       ELAPSED SYSTEM TIME (SEC)    =   0.0000    
       ELAPSED TOTAL CPU TIME (SEC) =   0.0000    
       ELAPSED WALLCLOCK TIME (SEC) =          0
 

 ***WARNING: THE SYSTEM MATRIX HAS 1 NEGATIVE EIGENVALUES.
             EXPLANATIONS ARE SUGGESTED AFTER THE FIRST OCCURRENCE OF THIS MESSAGE.

               CONVERGENCE CHECKS FOR EQUILIBRIUM ITERATION     6


 AVERAGE FORCE                      6.886E+04   TIME AVG. FORCE       3.548E+04
 LARGEST RESIDUAL FORCE             1.948E+05   AT NODE          3   DOF  1
 LARGEST INCREMENT OF DISP.         -20.1       AT NODE          1   DOF  2
 LARGEST CORRECTION TO DISP.         4.25       AT NODE          2   DOF  2
          FORCE     EQUILIBRIUM NOT ACHIEVED WITHIN TOLERANCE.

 AVERAGE MOMENT                     1.153E+05   TIME AVG. MOMENT      1.361E+05
 LARGEST RESIDUAL MOMENT            3.795E+03   AT NODE          4   DOF  6
 LARGEST INCREMENT OF ROTATION      0.532       AT NODE          1   DOF  6
 LARGEST CORRECTION TO ROTATION     9.442E-02   AT NODE          1   DOF  6
          MOMENT    EQUILIBRIUM NOT ACHIEVED WITHIN TOLERANCE.

  NUMBER OF EQUATIONS =        18     NUMBER OF RHS =    1
  NUMBER OF FLOATING PT. OPERATIONS =  6.33E+02

     CHECK POINT   START OF SOLVER    

     CHECK POINT  END OF SOLVER       

       ELAPSED USER TIME (SEC)      =   0.0000    
       ELAPSED SYSTEM TIME (SEC)    =   0.0000    
       ELAPSED TOTAL CPU TIME (SEC) =   0.0000    
       ELAPSED WALLCLOCK TIME (SEC) =          0

               CONVERGENCE CHECKS FOR EQUILIBRIUM ITERATION     7


 AVERAGE FORCE                      2.939E+04   TIME AVG. FORCE       1.574E+04
 LARGEST RESIDUAL FORCE             1.921E+05   AT NODE          1   DOF  1
 LARGEST INCREMENT OF DISP.         -18.1       AT NODE          1   DOF  2
 LARGEST CORRECTION TO DISP.         2.00       AT NODE          1   DOF  2
          FORCE     EQUILIBRIUM NOT ACHIEVED WITHIN TOLERANCE.

 AVERAGE MOMENT                     9.576E+04   TIME AVG. MOMENT      1.263E+05
 LARGEST RESIDUAL MOMENT             646.       AT NODE          1   DOF  6
 LARGEST INCREMENT OF ROTATION      0.431       AT NODE          1   DOF  6
 LARGEST CORRECTION TO ROTATION    -0.101       AT NODE          1   DOF  6
          MOMENT    EQUILIBRIUM NOT ACHIEVED WITHIN TOLERANCE.

  NUMBER OF EQUATIONS =        18     NUMBER OF RHS =    1
  NUMBER OF FLOATING PT. OPERATIONS =  6.33E+02

     CHECK POINT   START OF SOLVER    

     CHECK POINT  END OF SOLVER       

       ELAPSED USER TIME (SEC)      =  1.00000E-02
       ELAPSED SYSTEM TIME (SEC)    =   0.0000    
       ELAPSED TOTAL CPU TIME (SEC) =  1.00000E-02
       ELAPSED WALLCLOCK TIME (SEC) =          0

               CONVERGENCE CHECKS FOR EQUILIBRIUM ITERATION     8


 AVERAGE FORCE                      1.876E+04   TIME AVG. FORCE       1.043E+04
 LARGEST RESIDUAL FORCE             4.429E+04   AT NODE          1   DOF  1
 LARGEST INCREMENT OF DISP.         -15.6       AT NODE          1   DOF  2
 LARGEST CORRECTION TO DISP.         2.49       AT NODE          1   DOF  2
          FORCE     EQUILIBRIUM NOT ACHIEVED WITHIN TOLERANCE.

 AVERAGE MOMENT                     1.046E+05   TIME AVG. MOMENT      1.307E+05
 LARGEST RESIDUAL MOMENT           -1000.       AT NODE          1   DOF  6
 LARGEST INCREMENT OF ROTATION      0.393       AT NODE          1   DOF  6
 LARGEST CORRECTION TO ROTATION    -3.983E-02   AT NODE          2   DOF  6
          MOMENT    EQUILIBRIUM NOT ACHIEVED WITHIN TOLERANCE.

  NUMBER OF EQUATIONS =        18     NUMBER OF RHS =    1
  NUMBER OF FLOATING PT. OPERATIONS =  6.33E+02

     CHECK POINT   START OF SOLVER    

     CHECK POINT  END OF SOLVER       

       ELAPSED USER TIME (SEC)      =   0.0000    
       ELAPSED SYSTEM TIME (SEC)    =   0.0000    
       ELAPSED TOTAL CPU TIME (SEC) =   0.0000    
       ELAPSED WALLCLOCK TIME (SEC) =          0

               CONVERGENCE CHECKS FOR EQUILIBRIUM ITERATION     9


 AVERAGE FORCE                      5.494E+04   TIME AVG. FORCE       2.852E+04
 LARGEST RESIDUAL FORCE             2.594E+05   AT NODE          1   DOF  1
 LARGEST INCREMENT OF DISP.         -12.1       AT NODE          1   DOF  2
 LARGEST CORRECTION TO DISP.         3.54       AT NODE          1   DOF  2
          FORCE     EQUILIBRIUM NOT ACHIEVED WITHIN TOLERANCE.

 AVERAGE MOMENT                     1.016E+05   TIME AVG. MOMENT      1.292E+05
 LARGEST RESIDUAL MOMENT            2.563E+03   AT NODE          2   DOF  6
 LARGEST INCREMENT OF ROTATION      0.280       AT NODE          1   DOF  6
 LARGEST CORRECTION TO ROTATION    -0.112       AT NODE          1   DOF  6
          MOMENT    EQUILIBRIUM NOT ACHIEVED WITHIN TOLERANCE.
 

 ***NOTE: THE SOLUTION APPEARS TO BE DIVERGING. CONVERGENCE IS JUDGED UNLIKELY.


  INCREMENT     2 STARTS. ATTEMPT NUMBER  3, TIME INCREMENT  1.250E-02

  NUMBER OF EQUATIONS =        18     NUMBER OF RHS =    1
  NUMBER OF FLOATING PT. OPERATIONS =  6.33E+02

     CHECK POINT   START OF SOLVER    

     CHECK POINT  END OF SOLVER       

       ELAPSED USER TIME (SEC)      =   0.0000    
       ELAPSED SYSTEM TIME (SEC)    =   0.0000    
       ELAPSED TOTAL CPU TIME (SEC) =   0.0000    
       ELAPSED WALLCLOCK TIME (SEC) =          0

               CONVERGENCE CHECKS FOR EQUILIBRIUM ITERATION     1


 AVERAGE FORCE                      1.380E+04   TIME AVG. FORCE       7.947E+03
 LARGEST RESIDUAL FORCE            -2.152E+04   AT NODE          1   DOF  2
 LARGEST INCREMENT OF DISP.          1.79       AT NODE          1   DOF  2
 LARGEST CORRECTION TO DISP.         1.79       AT NODE          1   DOF  2
          FORCE     EQUILIBRIUM NOT ACHIEVED WITHIN TOLERANCE.

 AVERAGE MOMENT                     1.632E+05   TIME AVG. MOMENT      1.600E+05
 LARGEST RESIDUAL MOMENT             189.       AT NODE          2   DOF  6
 LARGEST INCREMENT OF ROTATION     -3.193E-02   AT NODE          1   DOF  6
 LARGEST CORRECTION TO ROTATION    -3.193E-02   AT NODE          1   DOF  6
          ROTATION CORRECTION TOO LARGE COMPARED TO ROTATION INCREMENT

  NUMBER OF EQUATIONS =        18     NUMBER OF RHS =    1
  NUMBER OF FLOATING PT. OPERATIONS =  6.33E+02

     CHECK POINT   START OF SOLVER    

     CHECK POINT  END OF SOLVER       

       ELAPSED USER TIME (SEC)      =   0.0000    
       ELAPSED SYSTEM TIME (SEC)    =   0.0000    
       ELAPSED TOTAL CPU TIME (SEC) =   0.0000    
       ELAPSED WALLCLOCK TIME (SEC) =          0

               CONVERGENCE CHECKS FOR EQUILIBRIUM ITERATION     2


 AVERAGE FORCE                      2.464E+03   TIME AVG. FORCE       2.280E+03
 LARGEST RESIDUAL FORCE             -10.2       AT NODE          1   DOF  1
 LARGEST INCREMENT OF DISP.          1.76       AT NODE          1   DOF  2
 LARGEST CORRECTION TO DISP.       -2.947E-02   AT NODE          1   DOF  2
 ESTIMATE OF DISP.    CORRECTION    1.206E-03
 FORCE     EQUILIB. ACCEPTED BASED ON SMALL RESIDUAL AND ESTIMATED CORRECTION

 AVERAGE MOMENT                     1.632E+05   TIME AVG. MOMENT      1.600E+05
 LARGEST RESIDUAL MOMENT            -45.7       AT NODE          4   DOF  6
 LARGEST INCREMENT OF ROTATION     -3.174E-02   AT NODE          1   DOF  6
 LARGEST CORRECTION TO ROTATION     1.862E-04   AT NODE          1   DOF  6
          THE MOMENT    EQUILIBRIUM EQUATIONS HAVE CONVERGED

 ITERATION SUMMARY FOR THE INCREMENT:   2 TOTAL ITERATIONS, OF WHICH
   0 ARE SEVERE DISCONTINUITY ITERATIONS AND  2 ARE EQUILIBRIUM ITERATIONS.

 TIME INCREMENT COMPLETED  1.250E-02,  FRACTION OF STEP COMPLETED  0.213    
 STEP TIME COMPLETED       0.213    ,  TOTAL TIME COMPLETED        0.213    

     RESTART INFORMATION WRITTEN IN STEP   1  AFTER INCREMENT     2


  INCREMENT     3 STARTS. ATTEMPT NUMBER  1, TIME INCREMENT  1.250E-02

  NUMBER OF EQUATIONS =        18     NUMBER OF RHS =    1
  NUMBER OF FLOATING PT. OPERATIONS =  6.33E+02

     CHECK POINT   START OF SOLVER    

     CHECK POINT  END OF SOLVER       

       ELAPSED USER TIME (SEC)      =   0.0000    
       ELAPSED SYSTEM TIME (SEC)    =   0.0000    
       ELAPSED TOTAL CPU TIME (SEC) =   0.0000    
       ELAPSED WALLCLOCK TIME (SEC) =          0

               CONVERGENCE CHECKS FOR EQUILIBRIUM ITERATION     1


 AVERAGE FORCE                      2.439E+03   TIME AVG. FORCE       2.333E+03
 LARGEST RESIDUAL FORCE             -178.       AT NODE          1   DOF  2
 LARGEST INCREMENT OF DISP.          1.58       AT NODE          1   DOF  2
 LARGEST CORRECTION TO DISP.       -0.183       AT NODE          1   DOF  2
          FORCE     EQUILIBRIUM NOT ACHIEVED WITHIN TOLERANCE.

 AVERAGE MOMENT                     1.877E+05   TIME AVG. MOMENT      1.693E+05
 LARGEST RESIDUAL MOMENT            -86.9       AT NODE          5   DOF  6
 LARGEST INCREMENT OF ROTATION     -2.867E-02   AT NODE          1   DOF  6
 LARGEST CORRECTION TO ROTATION     3.074E-03   AT NODE          1   DOF  6
          ROTATION CORRECTION TOO LARGE COMPARED TO ROTATION INCREMENT

  NUMBER OF EQUATIONS =        18     NUMBER OF RHS =    1
  NUMBER OF FLOATING PT. OPERATIONS =  6.33E+02

     CHECK POINT   START OF SOLVER    

     CHECK POINT  END OF SOLVER       

       ELAPSED USER TIME (SEC)      =   0.0000    
       ELAPSED SYSTEM TIME (SEC)    =   0.0000    
       ELAPSED TOTAL CPU TIME (SEC) =   0.0000    
       ELAPSED WALLCLOCK TIME (SEC) =          0

               CONVERGENCE CHECKS FOR EQUILIBRIUM ITERATION     2


 AVERAGE FORCE                      3.300E+03   TIME AVG. FORCE       2.620E+03
 LARGEST RESIDUAL FORCE            -0.214       AT NODE          1   DOF  2
 LARGEST INCREMENT OF DISP.          1.58       AT NODE          1   DOF  2
 LARGEST CORRECTION TO DISP.       -1.852E-03   AT NODE          1   DOF  1
          THE FORCE     EQUILIBRIUM EQUATIONS HAVE CONVERGED

 AVERAGE MOMENT                     1.877E+05   TIME AVG. MOMENT      1.692E+05
 LARGEST RESIDUAL MOMENT           -0.337       AT NODE          4   DOF  6
 LARGEST INCREMENT OF ROTATION     -2.857E-02   AT NODE          1   DOF  6
 LARGEST CORRECTION TO ROTATION     9.962E-05   AT NODE          1   DOF  6
          THE MOMENT    EQUILIBRIUM EQUATIONS HAVE CONVERGED
          TIME INCREMENT MAY NOW INCREASE TO    1.875E-02

 ITERATION SUMMARY FOR THE INCREMENT:   2 TOTAL ITERATIONS, OF WHICH
   0 ARE SEVERE DISCONTINUITY ITERATIONS AND  2 ARE EQUILIBRIUM ITERATIONS.

 TIME INCREMENT COMPLETED  1.250E-02,  FRACTION OF STEP COMPLETED  0.225    
 STEP TIME COMPLETED       0.225    ,  TOTAL TIME COMPLETED        0.225    


  INCREMENT     4 STARTS. ATTEMPT NUMBER  1, TIME INCREMENT  1.875E-02

  NUMBER OF EQUATIONS =        18     NUMBER OF RHS =    1
  NUMBER OF FLOATING PT. OPERATIONS =  6.33E+02

     CHECK POINT   START OF SOLVER    

     CHECK POINT  END OF SOLVER       

       ELAPSED USER TIME (SEC)      =   0.0000    
       ELAPSED SYSTEM TIME (SEC)    =   0.0000    
       ELAPSED TOTAL CPU TIME (SEC) =   0.0000    
       ELAPSED WALLCLOCK TIME (SEC) =          0

               CONVERGENCE CHECKS FOR EQUILIBRIUM ITERATION     1


 AVERAGE FORCE                      2.560E+03   TIME AVG. FORCE       2.605E+03
 LARGEST RESIDUAL FORCE             -9.32       AT NODE          5   DOF  1
 LARGEST INCREMENT OF DISP.          2.23       AT NODE          1   DOF  2
 LARGEST CORRECTION TO DISP.       -0.141       AT NODE          1   DOF  2
 ESTIMATE OF DISP.    CORRECTION   -1.909E-05
 FORCE     EQUILIB. ACCEPTED BASED ON SMALL RESIDUAL AND ESTIMATED CORRECTION

 AVERAGE MOMENT                     1.772E+05   TIME AVG. MOMENT      1.712E+05
 LARGEST RESIDUAL MOMENT            -150.       AT NODE          5   DOF  6
 LARGEST INCREMENT OF ROTATION     -4.127E-02   AT NODE          1   DOF  6
 LARGEST CORRECTION TO ROTATION     1.590E-03   AT NODE          1   DOF  6
 ESTIMATE OF ROTATION CORRECTION   -2.232E-04
 MOMENT    EQUILIB. ACCEPTED BASED ON SMALL RESIDUAL AND ESTIMATED CORRECTION
          TIME INCREMENT MAY NOW INCREASE TO    2.813E-02

 ITERATION SUMMARY FOR THE INCREMENT:   1 TOTAL ITERATIONS, OF WHICH
   0 ARE SEVERE DISCONTINUITY ITERATIONS AND  1 ARE EQUILIBRIUM ITERATIONS.

 TIME INCREMENT COMPLETED  1.875E-02,  FRACTION OF STEP COMPLETED  0.244    
 STEP TIME COMPLETED       0.244    ,  TOTAL TIME COMPLETED        0.244    

     RESTART INFORMATION WRITTEN IN STEP   1  AFTER INCREMENT     4


  INCREMENT     5 STARTS. ATTEMPT NUMBER  1, TIME INCREMENT  2.813E-02

  NUMBER OF EQUATIONS =        18     NUMBER OF RHS =    1
  NUMBER OF FLOATING PT. OPERATIONS =  6.33E+02

     CHECK POINT   START OF SOLVER    

     CHECK POINT  END OF SOLVER       

       ELAPSED USER TIME (SEC)      =  1.00000E-02
       ELAPSED SYSTEM TIME (SEC)    =   0.0000    
       ELAPSED TOTAL CPU TIME (SEC) =  1.00000E-02
       ELAPSED WALLCLOCK TIME (SEC) =          0

               CONVERGENCE CHECKS FOR EQUILIBRIUM ITERATION     1


 AVERAGE FORCE                      3.127E+03   TIME AVG. FORCE       2.709E+03
 LARGEST RESIDUAL FORCE             -633.       AT NODE          1   DOF  2
 LARGEST INCREMENT OF DISP.          2.94       AT NODE          1   DOF  2
 LARGEST CORRECTION TO DISP.       -0.405       AT NODE          1   DOF  2
          FORCE     EQUILIBRIUM NOT ACHIEVED WITHIN TOLERANCE.

 AVERAGE MOMENT                     1.883E+05   TIME AVG. MOMENT      1.746E+05
 LARGEST RESIDUAL MOMENT            -316.       AT NODE          5   DOF  6
 LARGEST INCREMENT OF ROTATION     -5.561E-02   AT NODE          1   DOF  6
 LARGEST CORRECTION TO ROTATION     6.288E-03   AT NODE          1   DOF  6
          ROTATION CORRECTION TOO LARGE COMPARED TO ROTATION INCREMENT

  NUMBER OF EQUATIONS =        18     NUMBER OF RHS =    1
  NUMBER OF FLOATING PT. OPERATIONS =  6.33E+02

     CHECK POINT   START OF SOLVER    

     CHECK POINT  END OF SOLVER       

       ELAPSED USER TIME (SEC)      =   0.0000    
       ELAPSED SYSTEM TIME (SEC)    =   0.0000    
       ELAPSED TOTAL CPU TIME (SEC) =   0.0000    
       ELAPSED WALLCLOCK TIME (SEC) =          0

               CONVERGENCE CHECKS FOR EQUILIBRIUM ITERATION     2


 AVERAGE FORCE                      2.849E+03   TIME AVG. FORCE       2.654E+03
 LARGEST RESIDUAL FORCE             -1.60       AT NODE          1   DOF  2
 LARGEST INCREMENT OF DISP.          2.94       AT NODE          1   DOF  2
 LARGEST CORRECTION TO DISP.       -3.998E-03   AT NODE          1   DOF  1
          THE FORCE     EQUILIBRIUM EQUATIONS HAVE CONVERGED

 AVERAGE MOMENT                     2.091E+05   TIME AVG. MOMENT      1.788E+05
 LARGEST RESIDUAL MOMENT            -1.28       AT NODE          4   DOF  6
 LARGEST INCREMENT OF ROTATION     -5.533E-02   AT NODE          1   DOF  6
 LARGEST CORRECTION TO ROTATION     2.752E-04   AT NODE          1   DOF  6
          THE MOMENT    EQUILIBRIUM EQUATIONS HAVE CONVERGED
          TIME INCREMENT MAY NOW INCREASE TO    4.219E-02

 ITERATION SUMMARY FOR THE INCREMENT:   2 TOTAL ITERATIONS, OF WHICH
   0 ARE SEVERE DISCONTINUITY ITERATIONS AND  2 ARE EQUILIBRIUM ITERATIONS.

 TIME INCREMENT COMPLETED  2.813E-02,  FRACTION OF STEP COMPLETED  0.272    
 STEP TIME COMPLETED       0.272    ,  TOTAL TIME COMPLETED        0.272    


  INCREMENT     6 STARTS. ATTEMPT NUMBER  1, TIME INCREMENT  4.219E-02

  NUMBER OF EQUATIONS =        18     NUMBER OF RHS =    1
  NUMBER OF FLOATING PT. OPERATIONS =  6.33E+02

     CHECK POINT   START OF SOLVER    

     CHECK POINT  END OF SOLVER       

       ELAPSED USER TIME (SEC)      =  1.00000E-02
       ELAPSED SYSTEM TIME (SEC)    =   0.0000    
       ELAPSED TOTAL CPU TIME (SEC) =  1.00000E-02
       ELAPSED WALLCLOCK TIME (SEC) =          0

               CONVERGENCE CHECKS FOR EQUILIBRIUM ITERATION     1


 AVERAGE FORCE                      4.133E+03   TIME AVG. FORCE       2.900E+03
 LARGEST RESIDUAL FORCE            -1.802E+03   AT NODE          1   DOF  2
 LARGEST INCREMENT OF DISP.          3.68       AT NODE          1   DOF  2
 LARGEST CORRECTION TO DISP.       -0.720       AT NODE          1   DOF  2
          FORCE     EQUILIBRIUM NOT ACHIEVED WITHIN TOLERANCE.

 AVERAGE MOMENT                     2.027E+05   TIME AVG. MOMENT      1.828E+05
 LARGEST RESIDUAL MOMENT             671.       AT NODE          2   DOF  6
 LARGEST INCREMENT OF ROTATION     -7.231E-02   AT NODE          1   DOF  6
 LARGEST CORRECTION TO ROTATION     1.070E-02   AT NODE          1   DOF  6
          ROTATION CORRECTION TOO LARGE COMPARED TO ROTATION INCREMENT

  NUMBER OF EQUATIONS =        18     NUMBER OF RHS =    1
  NUMBER OF FLOATING PT. OPERATIONS =  6.33E+02

     CHECK POINT   START OF SOLVER    

     CHECK POINT  END OF SOLVER       

       ELAPSED USER TIME (SEC)      =   0.0000    
       ELAPSED SYSTEM TIME (SEC)    =   0.0000    
       ELAPSED TOTAL CPU TIME (SEC) =   0.0000    
       ELAPSED WALLCLOCK TIME (SEC) =          0

               CONVERGENCE CHECKS FOR EQUILIBRIUM ITERATION     2


 AVERAGE FORCE                      3.291E+03   TIME AVG. FORCE       2.760E+03
 LARGEST RESIDUAL FORCE             -2.54       AT NODE          1   DOF  2
 LARGEST INCREMENT OF DISP.          3.69       AT NODE          1   DOF  2
 LARGEST CORRECTION TO DISP.        1.088E-02   AT NODE          3   DOF  2
          THE FORCE     EQUILIBRIUM EQUATIONS HAVE CONVERGED

 AVERAGE MOMENT                     2.251E+05   TIME AVG. MOMENT      1.865E+05
 LARGEST RESIDUAL MOMENT            -4.51       AT NODE          5   DOF  6
 LARGEST INCREMENT OF ROTATION     -7.195E-02   AT NODE          1   DOF  6
 LARGEST CORRECTION TO ROTATION    -3.920E-04   AT NODE          5   DOF  6
          THE MOMENT    EQUILIBRIUM EQUATIONS HAVE CONVERGED
          TIME INCREMENT MAY NOW INCREASE TO    6.328E-02

 ITERATION SUMMARY FOR THE INCREMENT:   2 TOTAL ITERATIONS, OF WHICH
   0 ARE SEVERE DISCONTINUITY ITERATIONS AND  2 ARE EQUILIBRIUM ITERATIONS.

 TIME INCREMENT COMPLETED  4.219E-02,  FRACTION OF STEP COMPLETED  0.314    
 STEP TIME COMPLETED       0.314    ,  TOTAL TIME COMPLETED        0.314    

     RESTART INFORMATION WRITTEN IN STEP   1  AFTER INCREMENT     6


  INCREMENT     7 STARTS. ATTEMPT NUMBER  1, TIME INCREMENT  6.328E-02

  NUMBER OF EQUATIONS =        18     NUMBER OF RHS =    1
  NUMBER OF FLOATING PT. OPERATIONS =  6.33E+02

     CHECK POINT   START OF SOLVER    

     CHECK POINT  END OF SOLVER       

       ELAPSED USER TIME (SEC)      =   0.0000    
       ELAPSED SYSTEM TIME (SEC)    =   0.0000    
       ELAPSED TOTAL CPU TIME (SEC) =   0.0000    
       ELAPSED WALLCLOCK TIME (SEC) =          0

               CONVERGENCE CHECKS FOR EQUILIBRIUM ITERATION     1


 AVERAGE FORCE                      7.057E+03   TIME AVG. FORCE       3.374E+03
 LARGEST RESIDUAL FORCE            -7.359E+03   AT NODE          1   DOF  2
 LARGEST INCREMENT OF DISP.          4.72       AT NODE          1   DOF  1
 LARGEST CORRECTION TO DISP.        -1.25       AT NODE          1   DOF  2
          FORCE     EQUILIBRIUM NOT ACHIEVED WITHIN TOLERANCE.

 AVERAGE MOMENT                     2.201E+05   TIME AVG. MOMENT      1.913E+05
 LARGEST RESIDUAL MOMENT            2.705E+03   AT NODE          2   DOF  6
 LARGEST INCREMENT OF ROTATION     -8.765E-02   AT NODE          1   DOF  6
 LARGEST CORRECTION TO ROTATION     2.027E-02   AT NODE          1   DOF  6
          MOMENT    EQUILIBRIUM NOT ACHIEVED WITHIN TOLERANCE.

  NUMBER OF EQUATIONS =        18     NUMBER OF RHS =    1
  NUMBER OF FLOATING PT. OPERATIONS =  6.33E+02

     CHECK POINT   START OF SOLVER    

     CHECK POINT  END OF SOLVER       

       ELAPSED USER TIME (SEC)      =   0.0000    
       ELAPSED SYSTEM TIME (SEC)    =   0.0000    
       ELAPSED TOTAL CPU TIME (SEC) =   0.0000    
       ELAPSED WALLCLOCK TIME (SEC) =          0

               CONVERGENCE CHECKS FOR EQUILIBRIUM ITERATION     2


 AVERAGE FORCE                      3.957E+03   TIME AVG. FORCE       2.931E+03
 LARGEST RESIDUAL FORCE             -10.4       AT NODE          5   DOF  1
 LARGEST INCREMENT OF DISP.          4.75       AT NODE          1   DOF  1
 LARGEST CORRECTION TO DISP.        2.591E-02   AT NODE          1   DOF  1
          THE FORCE     EQUILIBRIUM EQUATIONS HAVE CONVERGED

 AVERAGE MOMENT                     2.201E+05   TIME AVG. MOMENT      1.913E+05
 LARGEST RESIDUAL MOMENT            -17.6       AT NODE          4   DOF  6
 LARGEST INCREMENT OF ROTATION     -8.743E-02   AT NODE          1   DOF  6
 LARGEST CORRECTION TO ROTATION    -8.348E-04   AT NODE          5   DOF  6
          THE MOMENT    EQUILIBRIUM EQUATIONS HAVE CONVERGED
          TIME INCREMENT MAY NOW INCREASE TO    9.492E-02

 ITERATION SUMMARY FOR THE INCREMENT:   2 TOTAL ITERATIONS, OF WHICH
   0 ARE SEVERE DISCONTINUITY ITERATIONS AND  2 ARE EQUILIBRIUM ITERATIONS.

 TIME INCREMENT COMPLETED  6.328E-02,  FRACTION OF STEP COMPLETED  0.377    
 STEP TIME COMPLETED       0.377    ,  TOTAL TIME COMPLETED        0.377    


  INCREMENT     8 STARTS. ATTEMPT NUMBER  1, TIME INCREMENT  9.492E-02

  NUMBER OF EQUATIONS =        18     NUMBER OF RHS =    1
  NUMBER OF FLOATING PT. OPERATIONS =  6.33E+02

     CHECK POINT   START OF SOLVER    

     CHECK POINT  END OF SOLVER       

       ELAPSED USER TIME (SEC)      =   0.0000    
       ELAPSED SYSTEM TIME (SEC)    =   0.0000    
       ELAPSED TOTAL CPU TIME (SEC) =   0.0000    
       ELAPSED WALLCLOCK TIME (SEC) =          0

               CONVERGENCE CHECKS FOR EQUILIBRIUM ITERATION     1


 AVERAGE FORCE                      1.363E+04   TIME AVG. FORCE       4.268E+03
 LARGEST RESIDUAL FORCE            -2.232E+04   AT NODE          1   DOF  2
 LARGEST INCREMENT OF DISP.          5.80       AT NODE          1   DOF  1
 LARGEST CORRECTION TO DISP.        -1.89       AT NODE          1   DOF  2
          FORCE     EQUILIBRIUM NOT ACHIEVED WITHIN TOLERANCE.

 AVERAGE MOMENT                     2.396E+05   TIME AVG. MOMENT      1.974E+05
 LARGEST RESIDUAL MOMENT            7.264E+03   AT NODE          2   DOF  6
 LARGEST INCREMENT OF ROTATION     -9.774E-02   AT NODE          1   DOF  6
 LARGEST CORRECTION TO ROTATION     3.340E-02   AT NODE          1   DOF  6
          MOMENT    EQUILIBRIUM NOT ACHIEVED WITHIN TOLERANCE.

  NUMBER OF EQUATIONS =        18     NUMBER OF RHS =    1
  NUMBER OF FLOATING PT. OPERATIONS =  6.33E+02

     CHECK POINT   START OF SOLVER    

     CHECK POINT  END OF SOLVER       

       ELAPSED USER TIME (SEC)      =  1.00000E-02
       ELAPSED SYSTEM TIME (SEC)    =   0.0000    
       ELAPSED TOTAL CPU TIME (SEC) =  1.00000E-02
       ELAPSED WALLCLOCK TIME (SEC) =          0

               CONVERGENCE CHECKS FOR EQUILIBRIUM ITERATION     2


 AVERAGE FORCE                      4.962E+03   TIME AVG. FORCE       3.185E+03
 LARGEST RESIDUAL FORCE             -30.1       AT NODE          5   DOF  1
 LARGEST INCREMENT OF DISP.          5.86       AT NODE          1   DOF  1
 LARGEST CORRECTION TO DISP.        6.528E-02   AT NODE          1   DOF  1
          FORCE     EQUILIBRIUM NOT ACHIEVED WITHIN TOLERANCE.

 AVERAGE MOMENT                     2.396E+05   TIME AVG. MOMENT      1.974E+05
 LARGEST RESIDUAL MOMENT            -55.3       AT NODE          4   DOF  6
 LARGEST INCREMENT OF ROTATION     -9.771E-02   AT NODE          1   DOF  6
 LARGEST CORRECTION TO ROTATION    -1.415E-03   AT NODE          5   DOF  6
 ESTIMATE OF ROTATION CORRECTION    1.077E-05
 MOMENT    EQUILIB. ACCEPTED BASED ON SMALL RESIDUAL AND ESTIMATED CORRECTION

  NUMBER OF EQUATIONS =        18     NUMBER OF RHS =    1
  NUMBER OF FLOATING PT. OPERATIONS =  6.33E+02

     CHECK POINT   START OF SOLVER    

     CHECK POINT  END OF SOLVER       

       ELAPSED USER TIME (SEC)      =   0.0000    
       ELAPSED SYSTEM TIME (SEC)    =   0.0000    
       ELAPSED TOTAL CPU TIME (SEC) =   0.0000    
       ELAPSED WALLCLOCK TIME (SEC) =          0

               CONVERGENCE CHECKS FOR EQUILIBRIUM ITERATION     3


 AVERAGE FORCE                      4.958E+03   TIME AVG. FORCE       3.184E+03
 LARGEST RESIDUAL FORCE             -23.1       AT NODE          1   DOF  2
 LARGEST INCREMENT OF DISP.          5.92       AT NODE          1   DOF  1
 LARGEST CORRECTION TO DISP.        5.382E-02   AT NODE          1   DOF  1
          FORCE     EQUILIBRIUM NOT ACHIEVED WITHIN TOLERANCE.

 AVERAGE MOMENT                     2.665E+05   TIME AVG. MOMENT      2.007E+05
 LARGEST RESIDUAL MOMENT           -0.491       AT NODE          5   DOF  6
 LARGEST INCREMENT OF ROTATION     -9.862E-02   AT NODE          1   DOF  6
 LARGEST CORRECTION TO ROTATION    -9.159E-04   AT NODE          1   DOF  6
          THE MOMENT    EQUILIBRIUM EQUATIONS HAVE CONVERGED

  NUMBER OF EQUATIONS =        18     NUMBER OF RHS =    1
  NUMBER OF FLOATING PT. OPERATIONS =  6.33E+02

     CHECK POINT   START OF SOLVER    

     CHECK POINT  END OF SOLVER       

       ELAPSED USER TIME (SEC)      =   0.0000    
       ELAPSED SYSTEM TIME (SEC)    =   0.0000    
       ELAPSED TOTAL CPU TIME (SEC) =   0.0000    
       ELAPSED WALLCLOCK TIME (SEC) =          0

               CONVERGENCE CHECKS FOR EQUILIBRIUM ITERATION     4


 AVERAGE FORCE                      9.445E+03   TIME AVG. FORCE       3.745E+03
 LARGEST RESIDUAL FORCE            -2.641E-03   AT NODE          1   DOF  1
 LARGEST INCREMENT OF DISP.          5.92       AT NODE          1   DOF  1
 LARGEST CORRECTION TO DISP.       -5.687E-05   AT NODE          1   DOF  2
          THE FORCE     EQUILIBRIUM EQUATIONS HAVE CONVERGED

 AVERAGE MOMENT                     2.665E+05   TIME AVG. MOMENT      2.007E+05
 LARGEST RESIDUAL MOMENT           -6.836E-02   AT NODE          5   DOF  6
 LARGEST INCREMENT OF ROTATION     -9.862E-02   AT NODE          1   DOF  6
 LARGEST CORRECTION TO ROTATION     9.002E-07   AT NODE          1   DOF  6
          THE MOMENT    EQUILIBRIUM EQUATIONS HAVE CONVERGED
          TIME INCREMENT MAY NOW INCREASE TO    0.142    

 ITERATION SUMMARY FOR THE INCREMENT:   4 TOTAL ITERATIONS, OF WHICH
   0 ARE SEVERE DISCONTINUITY ITERATIONS AND  4 ARE EQUILIBRIUM ITERATIONS.

 TIME INCREMENT COMPLETED  9.492E-02,  FRACTION OF STEP COMPLETED  0.472    
 STEP TIME COMPLETED       0.472    ,  TOTAL TIME COMPLETED        0.472    

     RESTART INFORMATION WRITTEN IN STEP   1  AFTER INCREMENT     8


  INCREMENT     9 STARTS. ATTEMPT NUMBER  1, TIME INCREMENT  0.142    

  NUMBER OF EQUATIONS =        18     NUMBER OF RHS =    1
  NUMBER OF FLOATING PT. OPERATIONS =  6.33E+02

     CHECK POINT   START OF SOLVER    

     CHECK POINT  END OF SOLVER       

       ELAPSED USER TIME (SEC)      =   0.0000    
       ELAPSED SYSTEM TIME (SEC)    =   0.0000    
       ELAPSED TOTAL CPU TIME (SEC) =   0.0000    
       ELAPSED WALLCLOCK TIME (SEC) =          0

               CONVERGENCE CHECKS FOR EQUILIBRIUM ITERATION     1


 AVERAGE FORCE                      2.776E+04   TIME AVG. FORCE       6.414E+03
 LARGEST RESIDUAL FORCE            -5.872E+04   AT NODE          1   DOF  2
 LARGEST INCREMENT OF DISP.          6.48       AT NODE          1   DOF  1
 LARGEST CORRECTION TO DISP.        -2.54       AT NODE          1   DOF  2
          FORCE     EQUILIBRIUM NOT ACHIEVED WITHIN TOLERANCE.

 AVERAGE MOMENT                     2.591E+05   TIME AVG. MOMENT      2.072E+05
 LARGEST RESIDUAL MOMENT            1.495E+04   AT NODE          2   DOF  6
 LARGEST INCREMENT OF ROTATION     -9.922E-02   AT NODE          3   DOF  6
 LARGEST CORRECTION TO ROTATION     5.088E-02   AT NODE          1   DOF  6
          MOMENT    EQUILIBRIUM NOT ACHIEVED WITHIN TOLERANCE.

  NUMBER OF EQUATIONS =        18     NUMBER OF RHS =    1
  NUMBER OF FLOATING PT. OPERATIONS =  6.33E+02

     CHECK POINT   START OF SOLVER    

     CHECK POINT  END OF SOLVER       

       ELAPSED USER TIME (SEC)      =   0.0000    
       ELAPSED SYSTEM TIME (SEC)    =   0.0000    
       ELAPSED TOTAL CPU TIME (SEC) =   0.0000    
       ELAPSED WALLCLOCK TIME (SEC) =          0

               CONVERGENCE CHECKS FOR EQUILIBRIUM ITERATION     2


 AVERAGE FORCE                      6.472E+03   TIME AVG. FORCE       4.048E+03
 LARGEST RESIDUAL FORCE             -61.0       AT NODE          5   DOF  1
 LARGEST INCREMENT OF DISP.          6.59       AT NODE          1   DOF  1
 LARGEST CORRECTION TO DISP.        0.118       AT NODE          1   DOF  1
          FORCE     EQUILIBRIUM NOT ACHIEVED WITHIN TOLERANCE.

 AVERAGE MOMENT                     2.593E+05   TIME AVG. MOMENT      2.072E+05
 LARGEST RESIDUAL MOMENT            -154.       AT NODE          4   DOF  6
 LARGEST INCREMENT OF ROTATION     -0.100       AT NODE          3   DOF  6
 LARGEST CORRECTION TO ROTATION    -2.038E-03   AT NODE          5   DOF  6
 ESTIMATE OF ROTATION CORRECTION    2.095E-05
 MOMENT    EQUILIB. ACCEPTED BASED ON SMALL RESIDUAL AND ESTIMATED CORRECTION

  NUMBER OF EQUATIONS =        18     NUMBER OF RHS =    1
  NUMBER OF FLOATING PT. OPERATIONS =  6.33E+02

     CHECK POINT   START OF SOLVER    

     CHECK POINT  END OF SOLVER       

       ELAPSED USER TIME (SEC)      =   0.0000    
       ELAPSED SYSTEM TIME (SEC)    =   0.0000    
       ELAPSED TOTAL CPU TIME (SEC) =   0.0000    
       ELAPSED WALLCLOCK TIME (SEC) =          0

               CONVERGENCE CHECKS FOR EQUILIBRIUM ITERATION     3


 AVERAGE FORCE                      6.578E+03   TIME AVG. FORCE       4.060E+03
 LARGEST RESIDUAL FORCE             -388.       AT NODE          1   DOF  2
 LARGEST INCREMENT OF DISP.          6.81       AT NODE          1   DOF  1
 LARGEST CORRECTION TO DISP.        0.215       AT NODE          1   DOF  1
          FORCE     EQUILIBRIUM NOT ACHIEVED WITHIN TOLERANCE.

 AVERAGE MOMENT                     2.889E+05   TIME AVG. MOMENT      2.105E+05
 LARGEST RESIDUAL MOMENT            -1.13       AT NODE          5   DOF  6
 LARGEST INCREMENT OF ROTATION     -0.103       AT NODE          3   DOF  6
 LARGEST CORRECTION TO ROTATION    -3.725E-03   AT NODE          1   DOF  6
 ESTIMATE OF ROTATION CORRECTION   -2.731E-05
 MOMENT    EQUILIB. ACCEPTED BASED ON SMALL RESIDUAL AND ESTIMATED CORRECTION

  NUMBER OF EQUATIONS =        18     NUMBER OF RHS =    1
  NUMBER OF FLOATING PT. OPERATIONS =  6.33E+02

     CHECK POINT   START OF SOLVER    

     CHECK POINT  END OF SOLVER       

       ELAPSED USER TIME (SEC)      =   0.0000    
       ELAPSED SYSTEM TIME (SEC)    =   0.0000    
       ELAPSED TOTAL CPU TIME (SEC) =   0.0000    
       ELAPSED WALLCLOCK TIME (SEC) =          0

               CONVERGENCE CHECKS FOR EQUILIBRIUM ITERATION     4


 AVERAGE FORCE                      1.229E+04   TIME AVG. FORCE       4.695E+03
 LARGEST RESIDUAL FORCE            -4.397E-02   AT NODE          1   DOF  1
 LARGEST INCREMENT OF DISP.          6.81       AT NODE          1   DOF  1
 LARGEST CORRECTION TO DISP.       -4.026E-04   AT NODE          1   DOF  2
          THE FORCE     EQUILIBRIUM EQUATIONS HAVE CONVERGED

 AVERAGE MOMENT                     2.889E+05   TIME AVG. MOMENT      2.105E+05
 LARGEST RESIDUAL MOMENT           -0.993       AT NODE          4   DOF  6
 LARGEST INCREMENT OF ROTATION     -0.103       AT NODE          3   DOF  6
 LARGEST CORRECTION TO ROTATION     2.168E-06   AT NODE          1   DOF  6
          THE MOMENT    EQUILIBRIUM EQUATIONS HAVE CONVERGED
          TIME INCREMENT MAY NOW INCREASE TO    0.214    

 ITERATION SUMMARY FOR THE INCREMENT:   4 TOTAL ITERATIONS, OF WHICH
   0 ARE SEVERE DISCONTINUITY ITERATIONS AND  4 ARE EQUILIBRIUM ITERATIONS.

 TIME INCREMENT COMPLETED  0.142    ,  FRACTION OF STEP COMPLETED  0.615    
 STEP TIME COMPLETED       0.615    ,  TOTAL TIME COMPLETED        0.615    


  INCREMENT    10 STARTS. ATTEMPT NUMBER  1, TIME INCREMENT  0.214    

  NUMBER OF EQUATIONS =        18     NUMBER OF RHS =    1
  NUMBER OF FLOATING PT. OPERATIONS =  6.33E+02

     CHECK POINT   START OF SOLVER    

     CHECK POINT  END OF SOLVER       

       ELAPSED USER TIME (SEC)      =   0.0000    
       ELAPSED SYSTEM TIME (SEC)    =   0.0000    
       ELAPSED TOTAL CPU TIME (SEC) =   0.0000    
       ELAPSED WALLCLOCK TIME (SEC) =          0

               CONVERGENCE CHECKS FOR EQUILIBRIUM ITERATION     1


 AVERAGE FORCE                      4.879E+04   TIME AVG. FORCE       9.104E+03
 LARGEST RESIDUAL FORCE            -1.170E+05   AT NODE          1   DOF  2
 LARGEST INCREMENT OF DISP.          6.54       AT NODE          1   DOF  1
 LARGEST CORRECTION TO DISP.        -3.67       AT NODE          1   DOF  1
          FORCE     EQUILIBRIUM NOT ACHIEVED WITHIN TOLERANCE.

 AVERAGE MOMENT                     2.765E+05   TIME AVG. MOMENT      2.171E+05
 LARGEST RESIDUAL MOMENT            2.179E+04   AT NODE          2   DOF  6
 LARGEST INCREMENT OF ROTATION     -9.775E-02   AT NODE          4   DOF  6
 LARGEST CORRECTION TO ROTATION     6.812E-02   AT NODE          1   DOF  6
          MOMENT    EQUILIBRIUM NOT ACHIEVED WITHIN TOLERANCE.

  NUMBER OF EQUATIONS =        18     NUMBER OF RHS =    1
  NUMBER OF FLOATING PT. OPERATIONS =  6.33E+02

     CHECK POINT   START OF SOLVER    

     CHECK POINT  END OF SOLVER       

       ELAPSED USER TIME (SEC)      =   0.0000    
       ELAPSED SYSTEM TIME (SEC)    =   0.0000    
       ELAPSED TOTAL CPU TIME (SEC) =   0.0000    
       ELAPSED WALLCLOCK TIME (SEC) =          0

               CONVERGENCE CHECKS FOR EQUILIBRIUM ITERATION     2


 AVERAGE FORCE                      8.735E+03   TIME AVG. FORCE       5.099E+03
 LARGEST RESIDUAL FORCE              167.       AT NODE          1   DOF  1
 LARGEST INCREMENT OF DISP.          6.72       AT NODE          1   DOF  1
 LARGEST CORRECTION TO DISP.        0.176       AT NODE          1   DOF  1
          FORCE     EQUILIBRIUM NOT ACHIEVED WITHIN TOLERANCE.

 AVERAGE MOMENT                     2.767E+05   TIME AVG. MOMENT      2.171E+05
 LARGEST RESIDUAL MOMENT            -334.       AT NODE          5   DOF  6
 LARGEST INCREMENT OF ROTATION     -9.922E-02   AT NODE          4   DOF  6
 LARGEST CORRECTION TO ROTATION    -2.608E-03   AT NODE          5   DOF  6
 ESTIMATE OF ROTATION CORRECTION    3.993E-05
 MOMENT    EQUILIB. ACCEPTED BASED ON SMALL RESIDUAL AND ESTIMATED CORRECTION

  NUMBER OF EQUATIONS =        18     NUMBER OF RHS =    1
  NUMBER OF FLOATING PT. OPERATIONS =  6.33E+02

     CHECK POINT   START OF SOLVER    

     CHECK POINT  END OF SOLVER       

       ELAPSED USER TIME (SEC)      =   0.0000    
       ELAPSED SYSTEM TIME (SEC)    =   0.0000    
       ELAPSED TOTAL CPU TIME (SEC) =   0.0000    
       ELAPSED WALLCLOCK TIME (SEC) =          0

               CONVERGENCE CHECKS FOR EQUILIBRIUM ITERATION     3


 AVERAGE FORCE                      9.382E+03   TIME AVG. FORCE       5.164E+03
 LARGEST RESIDUAL FORCE            -2.252E+03   AT NODE          1   DOF  2
 LARGEST INCREMENT OF DISP.          7.23       AT NODE          1   DOF  1
 LARGEST CORRECTION TO DISP.        0.514       AT NODE          1   DOF  1
          FORCE     EQUILIBRIUM NOT ACHIEVED WITHIN TOLERANCE.

 AVERAGE MOMENT                     3.094E+05   TIME AVG. MOMENT      2.204E+05
 LARGEST RESIDUAL MOMENT             3.14       AT NODE          2   DOF  6
 LARGEST INCREMENT OF ROTATION     -0.105       AT NODE          4   DOF  6
 LARGEST CORRECTION TO ROTATION    -8.926E-03   AT NODE          1   DOF  6
 ESTIMATE OF ROTATION CORRECTION    8.399E-05
 MOMENT    EQUILIB. ACCEPTED BASED ON SMALL RESIDUAL AND ESTIMATED CORRECTION

  NUMBER OF EQUATIONS =        18     NUMBER OF RHS =    1
  NUMBER OF FLOATING PT. OPERATIONS =  6.33E+02

     CHECK POINT   START OF SOLVER    

     CHECK POINT  END OF SOLVER       

       ELAPSED USER TIME (SEC)      =   0.0000    
       ELAPSED SYSTEM TIME (SEC)    =   0.0000    
       ELAPSED TOTAL CPU TIME (SEC) =   0.0000    
       ELAPSED WALLCLOCK TIME (SEC) =          0

               CONVERGENCE CHECKS FOR EQUILIBRIUM ITERATION     4


 AVERAGE FORCE                      9.590E+03   TIME AVG. FORCE       5.185E+03
 LARGEST RESIDUAL FORCE            -0.265       AT NODE          1   DOF  1
 LARGEST INCREMENT OF DISP.          7.23       AT NODE          1   DOF  1
 LARGEST CORRECTION TO DISP.       -2.199E-03   AT NODE          1   DOF  2
          THE FORCE     EQUILIBRIUM EQUATIONS HAVE CONVERGED

 AVERAGE MOMENT                     3.094E+05   TIME AVG. MOMENT      2.204E+05
 LARGEST RESIDUAL MOMENT            -5.35       AT NODE          4   DOF  6
 LARGEST INCREMENT OF ROTATION     -0.105       AT NODE          4   DOF  6
 LARGEST CORRECTION TO ROTATION     1.513E-05   AT NODE          1   DOF  6
          THE MOMENT    EQUILIBRIUM EQUATIONS HAVE CONVERGED

 ITERATION SUMMARY FOR THE INCREMENT:   4 TOTAL ITERATIONS, OF WHICH
   0 ARE SEVERE DISCONTINUITY ITERATIONS AND  4 ARE EQUILIBRIUM ITERATIONS.

 TIME INCREMENT COMPLETED  0.214    ,  FRACTION OF STEP COMPLETED  0.828    
 STEP TIME COMPLETED       0.828    ,  TOTAL TIME COMPLETED        0.828    

     RESTART INFORMATION WRITTEN IN STEP   1  AFTER INCREMENT    10


  INCREMENT    11 STARTS. ATTEMPT NUMBER  1, TIME INCREMENT  0.172    

  NUMBER OF EQUATIONS =        18     NUMBER OF RHS =    1
  NUMBER OF FLOATING PT. OPERATIONS =  6.33E+02

     CHECK POINT   START OF SOLVER    

     CHECK POINT  END OF SOLVER       

       ELAPSED USER TIME (SEC)      =   0.0000    
       ELAPSED SYSTEM TIME (SEC)    =   0.0000    
       ELAPSED TOTAL CPU TIME (SEC) =   0.0000    
       ELAPSED WALLCLOCK TIME (SEC) =          0

               CONVERGENCE CHECKS FOR EQUILIBRIUM ITERATION     1


 AVERAGE FORCE                      1.987E+04   TIME AVG. FORCE       6.519E+03
 LARGEST RESIDUAL FORCE            -2.714E+04   AT NODE          1   DOF  2
 LARGEST INCREMENT OF DISP.          3.98       AT NODE          1   DOF  1
 LARGEST CORRECTION TO DISP.        -1.84       AT NODE          1   DOF  1
          FORCE     EQUILIBRIUM NOT ACHIEVED WITHIN TOLERANCE.

 AVERAGE MOMENT                     2.871E+05   TIME AVG. MOMENT      2.265E+05
 LARGEST RESIDUAL MOMENT            3.467E+03   AT NODE          2   DOF  6
 LARGEST INCREMENT OF ROTATION     -6.063E-02   AT NODE          4   DOF  6
 LARGEST CORRECTION TO ROTATION     3.151E-02   AT NODE          1   DOF  6
          MOMENT    EQUILIBRIUM NOT ACHIEVED WITHIN TOLERANCE.

  NUMBER OF EQUATIONS =        18     NUMBER OF RHS =    1
  NUMBER OF FLOATING PT. OPERATIONS =  6.33E+02

     CHECK POINT   START OF SOLVER    

     CHECK POINT  END OF SOLVER       

       ELAPSED USER TIME (SEC)      =   0.0000    
       ELAPSED SYSTEM TIME (SEC)    =   0.0000    
       ELAPSED TOTAL CPU TIME (SEC) =   0.0000    
       ELAPSED WALLCLOCK TIME (SEC) =          0

               CONVERGENCE CHECKS FOR EQUILIBRIUM ITERATION     2


 AVERAGE FORCE                      1.052E+04   TIME AVG. FORCE       5.670E+03
 LARGEST RESIDUAL FORCE             -83.6       AT NODE          1   DOF  2
 LARGEST INCREMENT OF DISP.          4.11       AT NODE          1   DOF  1
 LARGEST CORRECTION TO DISP.        0.133       AT NODE          1   DOF  1
          FORCE     EQUILIBRIUM NOT ACHIEVED WITHIN TOLERANCE.

 AVERAGE MOMENT                     2.874E+05   TIME AVG. MOMENT      2.265E+05
 LARGEST RESIDUAL MOMENT            -92.1       AT NODE          5   DOF  6
 LARGEST INCREMENT OF ROTATION     -6.198E-02   AT NODE          4   DOF  6
 LARGEST CORRECTION TO ROTATION    -1.663E-03   AT NODE          1   DOF  6
 ESTIMATE OF ROTATION CORRECTION    4.416E-05
 MOMENT    EQUILIB. ACCEPTED BASED ON SMALL RESIDUAL AND ESTIMATED CORRECTION

  NUMBER OF EQUATIONS =        18     NUMBER OF RHS =    1
  NUMBER OF FLOATING PT. OPERATIONS =  6.33E+02

     CHECK POINT   START OF SOLVER    

     CHECK POINT  END OF SOLVER       

       ELAPSED USER TIME (SEC)      =  1.00000E-02
       ELAPSED SYSTEM TIME (SEC)    =   0.0000    
       ELAPSED TOTAL CPU TIME (SEC) =  1.00000E-02
       ELAPSED WALLCLOCK TIME (SEC) =          0

               CONVERGENCE CHECKS FOR EQUILIBRIUM ITERATION     3


 AVERAGE FORCE                      1.050E+04   TIME AVG. FORCE       5.668E+03
 LARGEST RESIDUAL FORCE             -98.2       AT NODE          1   DOF  2
 LARGEST INCREMENT OF DISP.          4.22       AT NODE          1   DOF  1
 LARGEST CORRECTION TO DISP.        0.104       AT NODE          1   DOF  1
          FORCE     EQUILIBRIUM NOT ACHIEVED WITHIN TOLERANCE.

 AVERAGE MOMENT                     3.198E+05   TIME AVG. MOMENT      2.294E+05
 LARGEST RESIDUAL MOMENT            -1.44       AT NODE          5   DOF  6
 LARGEST INCREMENT OF ROTATION     -6.299E-02   AT NODE          4   DOF  6
 LARGEST CORRECTION TO ROTATION    -1.868E-03   AT NODE          1   DOF  6
 ESTIMATE OF ROTATION CORRECTION   -2.913E-05
 MOMENT    EQUILIB. ACCEPTED BASED ON SMALL RESIDUAL AND ESTIMATED CORRECTION

  NUMBER OF EQUATIONS =        18     NUMBER OF RHS =    1
  NUMBER OF FLOATING PT. OPERATIONS =  6.33E+02

     CHECK POINT   START OF SOLVER    

     CHECK POINT  END OF SOLVER       

       ELAPSED USER TIME (SEC)      =   0.0000    
       ELAPSED SYSTEM TIME (SEC)    =   0.0000    
       ELAPSED TOTAL CPU TIME (SEC) =   0.0000    
       ELAPSED WALLCLOCK TIME (SEC) =          0

               CONVERGENCE CHECKS FOR EQUILIBRIUM ITERATION     4


 AVERAGE FORCE                      2.000E+04   TIME AVG. FORCE       6.531E+03
 LARGEST RESIDUAL FORCE            -8.524E-03   AT NODE          1   DOF  1
 LARGEST INCREMENT OF DISP.          4.22       AT NODE          1   DOF  1
 LARGEST CORRECTION TO DISP.        1.764E-04   AT NODE          1   DOF  1
          THE FORCE     EQUILIBRIUM EQUATIONS HAVE CONVERGED

 AVERAGE MOMENT                     3.198E+05   TIME AVG. MOMENT      2.294E+05
 LARGEST RESIDUAL MOMENT           -0.206       AT NODE          4   DOF  6
 LARGEST INCREMENT OF ROTATION     -6.299E-02   AT NODE          4   DOF  6
 LARGEST CORRECTION TO ROTATION    -4.422E-06   AT NODE          1   DOF  6
          THE MOMENT    EQUILIBRIUM EQUATIONS HAVE CONVERGED

 ITERATION SUMMARY FOR THE INCREMENT:   4 TOTAL ITERATIONS, OF WHICH
   0 ARE SEVERE DISCONTINUITY ITERATIONS AND  4 ARE EQUILIBRIUM ITERATIONS.

 TIME INCREMENT COMPLETED  0.172    ,  FRACTION OF STEP COMPLETED   1.00    
 STEP TIME COMPLETED        1.00    ,  TOTAL TIME COMPLETED         1.00    

     RESTART INFORMATION WRITTEN IN STEP   1  AFTER INCREMENT    11


          THE ANALYSIS HAS BEEN COMPLETED



     ANALYSIS SUMMARY:
     TOTAL OF         11  INCREMENTS
                       2  CUTBACKS IN AUTOMATIC INCREMENTATION
                      49  ITERATIONS INCLUDING CONTACT ITERATIONS IF PRESENT
                      49  PASSES THROUGH THE EQUATION SOLVER OF WHICH 
                      49  INVOLVE MATRIX DECOMPOSITION, INCLUDING
                       0  DECOMPOSITION(S) OF THE MASS MATRIX
                       1  REORDERING OF EQUATIONS TO MINIMIZE WAVEFRONT
                       0  ADDITIONAL RESIDUAL EVALUATIONS FOR LINE SEARCHES
                       0  ADDITIONAL OPERATOR EVALUATIONS FOR LINE SEARCHES
                       0  WARNING MESSAGES DURING USER INPUT PROCESSING
                       6  WARNING MESSAGES DURING ANALYSIS
                       0  ANALYSIS WARNINGS ARE NUMERICAL PROBLEM MESSAGES
                       6  ANALYSIS WARNINGS ARE NEGATIVE EIGENVALUE MESSAGES
                       0  ERROR MESSAGES



     JOB TIME SUMMARY
       USER TIME (SEC)      =  0.26000    
       SYSTEM TIME (SEC)    =  5.00000E-02
       TOTAL CPU TIME (SEC) =  0.31000    
       WALLCLOCK TIME (SEC) =          0
