*HEADING
 BISSHOPP AND DRUCKER -- SMALL DISPLACEMENT ANALYSIS            C1
*PREPRINT,ECHO=YES
*PART,NAME=PART-1
*NODE
1,  0., 0.
6, 100., 0.
*NGEN
1,6,1
*ELEMENT,TYPE=B21
1,1,2
*ELGEN,ELSET=EA
1,5,1,1
*BEAM SECTION,SECTION=RECT,ELSET=EA,MATERIAL=MATEA
1., 2.
*END PART
*ASSEMBLY,NAME=ASSEMBLY-1
*INSTANCE,NAME=PART-1-1,PART=PART-1
*END INSTANCE
*END ASSEMBLY
*MATERIAL,NAME=MATEA
*ELASTIC
3.E7
*STEP,PERTURBATION
 SMALL DISPLACEMENT ANALYSIS
*STATIC
*CLOAD
ASSEMBLY-1.PART-1-1.1, 2, 2.E4
*BOUNDARY
ASSEMBLY-1.PART-1-1.6, 1, 2
ASSEMBLY-1.PART-1-1.6, 6, 6
*ENERGY PRINT
*NODE PRINT
U
*END STEP
