1

   Abaqus 3DEXPERIENCE R2019x                                  Date 10-Feb-2020   Time 10:59:41
   For use by QUEST INTEGRITY USA LLC under license from Dassault Systemes or its subsidiary.



                         The Abaqus Software is a product of:

                           Dassault Systemes SIMULIA Corp.
                           1301 Atwood Avenue, Suite 101W
                              Johnston, RI 02919, USA
 


                   The Abaqus Software is available only under license
                   from Dassault Systemes or its subsidiary and may be
                   used or reproduced only in accordance with the terms
                   of such license.
 
                          On machine DJRRTT2 
                          you are authorized to run
                          Abaqus/Standard until 29-Sep-2020

                          Your site id is: 200000000058680 


 
                    For assistance or any other information you may
                    obtain contact information for your local office
                    from the world wide web at:

                      http://www.3ds.com/products/simulia/locations/

 
                * * * * * * * * * * * * * * * * * * * * * * * * * * * * * * 
                *                                                         * 
                *                   *****************                     * 
                *                   *  N O T I C E  *                     * 
                *                   *****************                     * 
                *                                                         * 
                *                                                         * 
                *               Abaqus 3DEXPERIENCE R2019x                * 
                *                                                         * 
                *          BUILD ID: 2018_09_24-12.41.51 157541           * 
                *                                                         * 
                *                                                         * 
                *  Please make sure you are using                         * 
                *  release 3DEXPERIENCE R2019x manuals                    * 
                *  plus the notes accompanying this release.              * 
                *                                                         * 
                *                                                         * 
                *                                                         * 
                *                                                         * 
                * * * * * * * * * * * * * * * * * * * * * * * * * * * * * * 


 



     PROCESSING PART, INSTANCE, AND ASSEMBLY INFORMATION
   *******************************************************


     END PROCESSING PART, INSTANCE, AND ASSEMBLY INFORMATION
   ***********************************************************




     OPTIONS BEING PROCESSED
   ***************************


  *HEADING
          BISSHOPP AND DRUCKER -- LARGE DISPLACEMENT ANALYSIS            C2                                                                                                                                                                                               
  *NODE
  *NGEN,NSET=N1
  *ELEMENT , TYPE=B21
  *ELGEN,ELSET=E1
  *MATERIAL,NAME=MATE1
  *ELASTIC
  *BEAM SECTION , SECTION=RECT,ELSET=E1,MATERIAL=MATE1
  *BOUNDARY
  *BOUNDARY
  *OUTPUT,FIELD
  *ELEMENT OUTPUT,ELSET=E1
  *OUTPUT,FIELD
  *ELEMENT OUTPUT,ELSET=E1
  *OUTPUT,FIELD
  *ELEMENT OUTPUT,ELSET=E1
  *STEP , NLGEOM      ,INC=25
  *OUTPUT,FIELD
  *STEP , NLGEOM      ,INC=25
  *STEP , NLGEOM      ,INC=25
  LARGE ROTATION ANALYSIS                                                         
  *STATIC
  *ENERGY PRINT , FREQ=5
  *NODE PRINT,SUMMARY=NO
  *EL PRINT , FREQ=5,SUMMARY=NO
  *OUTPUT,FIELD
  *NODE OUTPUT, NSET=N1
  *ELEMENT OUTPUT,ELSET=E1
  *END STEP
  *BOUNDARY
  *STEP , NLGEOM      ,INC=25
  *STATIC
  *CLOAD
  *END STEP



                            P R O B L E M   S I Z E


          NUMBER OF ELEMENTS IS                                     5
          NUMBER OF NODES IS                                       16
          NUMBER OF NODES DEFINED BY THE USER                       6
          NUMBER OF INTERNAL NODES GENERATED BY THE PROGRAM        10
          TOTAL NUMBER OF VARIABLES IN THE MODEL                   18
          (DEGREES OF FREEDOM PLUS MAX NO. OF ANY LAGRANGE MULTIPLIER
           VARIABLES. INCLUDE *PRINT,SOLVE=YES TO GET THE ACTUAL NUMBER.)



                              END OF USER INPUT PROCESSING



     JOB TIME SUMMARY
       USER TIME (SEC)      =  0.10000    
       SYSTEM TIME (SEC)    =   0.0000    
       TOTAL CPU TIME (SEC) =  0.10000    
       WALLCLOCK TIME (SEC) =          1
1

   Abaqus 3DEXPERIENCE R2019x                                  Date 10-Feb-2020   Time 10:59:43
   For use by QUEST INTEGRITY USA LLC under license from Dassault Systemes or its subsidiary.

     BISSHOPP AND DRUCKER -- LARGE DISPLACEMENT ANALYSIS            C2                         STEP    1  INCREMENT    1
     LARGE ROTATION ANALYSIS                                                              TIME COMPLETED IN THIS STEP   0.00    


                        S T E P       1     S T A T I C   A N A L Y S I S


          LARGE ROTATION ANALYSIS                                                         

     AUTOMATIC TIME CONTROL WITH -
          A SUGGESTED INITIAL TIME INCREMENT OF                0.200    
          AND A TOTAL TIME PERIOD OF                            1.00    
          THE MINIMUM TIME INCREMENT ALLOWED IS                1.000E-02
          THE MAXIMUM TIME INCREMENT ALLOWED IS                 1.00    

     LINEAR EQUATION SOLVER TYPE         DIRECT SPARSE

          LARGE DISPLACEMENT THEORY WILL BE USED
  
                   M E M O R Y   E S T I M A T E
  
 PROCESS      FLOATING PT       MINIMUM MEMORY        MEMORY TO
              OPERATIONS           REQUIRED          MINIMIZE I/O
             PER ITERATION           (MB)               (MB)
  
     1          6.33E+02               17                 24
  
 NOTE:
      (1) SINCE ABAQUS DOES NOT PRE-ALLOCATE MEMORY AND ONLY ALLOCATES MEMORY AS NEEDED DURING THE ANALYSIS,
          THE MEMORY REQUIREMENT PRINTED HERE CAN ONLY BE VIEWED AS A GENERAL GUIDELINE BASED ON THE BEST
          KNOWLEDGE AVAILABLE AT THE BEGINNING OF A STEP BEFORE THE SOLUTION PROCESS HAS BEGUN.
      (2) THE ESTIMATE IS NORMALLY UPDATED AT THE BEGINNING OF EVERY STEP. IT IS THE MAXIMUM VALUE OF THE
          ESTIMATE FROM THE CURRENT STEP TO THE LAST STEP OF THE ANALYSIS, WITH UNSYMMETRIC SOLUTION TAKEN
          INTO ACCOUNT IF APPLICABLE. 
      (3) SINCE THE ESTIMATE IS BASED ON THE ACTIVE DEGREES OF FREEDOM IN THE FIRST ITERATION OF THE 
          CURRENT STEP, THE MEMORY ESTIMATE MIGHT BE SIGNIFICANTLY DIFFERENT THAN ACTUAL USAGE FOR 
          PROBLEMS WITH SUBSTANTIAL CHANGES IN ACTIVE DEGREES OF FREEDOM BETWEEN STEPS (OR EVEN WITHIN
          THE SAME STEP). EXAMPLES ARE: PROBLEMS WITH SIGNIFICANT CONTACT CHANGES, PROBLEMS WITH MODEL
          CHANGE, PROBLEMS WITH BOTH STATIC STEP AND STEADY STATE DYNAMIC PROCEDURES WHERE ACOUSTIC 
          ELEMENTS WILL ONLY BE ACTIVATED IN THE STEADY STATE DYNAMIC STEPS.
      (4) FOR MULTI-PROCESS EXECUTION, THE ESTIMATED VALUE OF FLOATING POINT OPERATIONS FOR EACH PROCESS
          IS BASED ON AN INITIAL SCHEDULING OF OPERATIONS AND MIGHT NOT REFLECT THE ACTUAL FLOATING 
          POINT OPERATIONS COMPLETED ON EACH PROCESS. OPERATIONS ARE DYNAMICALLY BALANCED DURING EXECUTION, 
          SO THE ACTUAL BALANCE OF OPERATIONS BETWEEN PROCESSES IS EXPECTED TO BE BETTER THAN THE ESTIMATE
          PRINTED HERE.
      (5) THE UPPER LIMIT OF MEMORY THAT CAN BE ALLOCATED BY ABAQUS WILL IN GENERAL DEPEND ON THE VALUE OF
          THE "MEMORY" PARAMETER AND THE AMOUNT OF PHYSICAL MEMORY AVAILABLE ON THE MACHINE. PLEASE SEE
          THE "ABAQUS ANALYSIS USER'S MANUAL" FOR MORE DETAILS. THE ACTUAL USAGE OF MEMORY AND OF DISK
          SPACE FOR SCRATCH DATA WILL DEPEND ON THIS UPPER LIMIT AS WELL AS THE MEMORY REQUIRED TO MINIMIZE
          I/O. IF THE MEMORY UPPER LIMIT IS GREATER THAN THE MEMORY REQUIRED TO MINIMIZE I/O, THEN THE ACTUAL
          MEMORY USAGE WILL BE CLOSE TO THE ESTIMATED "MEMORY TO MINIMIZE I/O" VALUE, AND THE SCRATCH DISK
          USAGE WILL BE CLOSE-TO-ZERO; OTHERWISE, THE ACTUAL MEMORY USED WILL BE CLOSE TO THE PREVIOUSLY
          MENTIONED MEMORY LIMIT, AND THE SCRATCH DISK USAGE WILL BE ROUGHLY PROPORTIONAL TO THE DIFFERENCE
          BETWEEN THE ESTIMATED "MEMORY TO MINIMIZE I/O" AND THE MEMORY UPPER LIMIT. HOWEVER ACCURATE
          ESTIMATE OF THE SCRATCH DISK SPACE IS NOT POSSIBLE.
      (6) USING "*RESTART, WRITE" CAN GENERATE A LARGE AMOUNT OF DATA WRITTEN IN THE WORK DIRECTORY.


                                INCREMENT     1 SUMMARY


 TIME INCREMENT COMPLETED  0.200    ,  FRACTION OF STEP COMPLETED  0.200    
 STEP TIME COMPLETED       0.200    ,  TOTAL TIME COMPLETED        0.200    
  
  
  
  
                                       N O D E   O U T P U T
  
  
  
  
   THE FOLLOWING TABLE IS PRINTED FOR ALL NODES
  
       NODE FOOT-  U1             U2             UR3            RF1            RF2            RM3            CF1            CF2            CM3          
            NOTE
  
          1      1.5922396E+01  4.9329904E+01 -7.8426990E-01  0.0000000E+00  0.0000000E+00  0.0000000E+00  0.0000000E+00  4.0000000E+03  0.0000000E+00
          2      1.0241251E+01  3.5365395E+01 -7.5563073E-01  0.0000000E+00  0.0000000E+00  0.0000000E+00  0.0000000E+00  0.0000000E+00  0.0000000E+00
          3      5.3441948E+00  2.2252961E+01 -6.6814518E-01  0.0000000E+00  0.0000000E+00  0.0000000E+00  0.0000000E+00  0.0000000E+00  0.0000000E+00
          4      1.8951857E+00  1.1023780E+01 -5.1734960E-01  0.0000000E+00  0.0000000E+00  0.0000000E+00  0.0000000E+00  0.0000000E+00  0.0000000E+00
          5      2.3167578E-01  3.0366499E+00 -2.9677844E-01  0.0000000E+00  0.0000000E+00  0.0000000E+00  0.0000000E+00  0.0000000E+00  0.0000000E+00
          6      0.0000000E+00  0.0000000E+00  0.0000000E+00 -3.9614523E-05 -4.0000002E+03  3.3631248E+05  0.0000000E+00  0.0000000E+00  0.0000000E+00


                                INCREMENT     2 SUMMARY


 TIME INCREMENT COMPLETED  1.250E-02,  FRACTION OF STEP COMPLETED  0.213    
 STEP TIME COMPLETED       0.213    ,  TOTAL TIME COMPLETED        0.213    
  
  
  
  
                                       N O D E   O U T P U T
  
  
  
  
   THE FOLLOWING TABLE IS PRINTED FOR ALL NODES
  
       NODE FOOT-  U1             U2             UR3            RF1            RF2            RM3            CF1            CF2            CM3          
            NOTE
  
          1      1.7218667E+01  5.1094282E+01 -8.1601350E-01  0.0000000E+00  0.0000000E+00  0.0000000E+00  0.0000000E+00  4.2500000E+03  0.0000000E+00
          2      1.1092366E+01  3.6687302E+01 -7.8646342E-01  0.0000000E+00  0.0000000E+00  0.0000000E+00  0.0000000E+00  0.0000000E+00  0.0000000E+00
          3      5.8022852E+00  2.3135310E+01 -6.9604688E-01  0.0000000E+00  0.0000000E+00  0.0000000E+00  0.0000000E+00  0.0000000E+00  0.0000000E+00
          4      2.0640689E+00  1.1491119E+01 -5.3972387E-01  0.0000000E+00  0.0000000E+00  0.0000000E+00  0.0000000E+00  0.0000000E+00  0.0000000E+00
          5      2.5319809E-01  3.1737309E+00 -3.1015919E-01  0.0000000E+00  0.0000000E+00  0.0000000E+00  0.0000000E+00  0.0000000E+00  0.0000000E+00
          6      0.0000000E+00  0.0000000E+00  0.0000000E+00  1.9864353E-02 -4.2502775E+03  3.5212085E+05  0.0000000E+00  0.0000000E+00  0.0000000E+00


                                INCREMENT     3 SUMMARY


 TIME INCREMENT COMPLETED  1.250E-02,  FRACTION OF STEP COMPLETED  0.225    
 STEP TIME COMPLETED       0.225    ,  TOTAL TIME COMPLETED        0.225    
  
  
  
  
                                       N O D E   O U T P U T
  
  
  
  
   THE FOLLOWING TABLE IS PRINTED FOR ALL NODES
  
       NODE FOOT-  U1             U2             UR3            RF1            RF2            RM3            CF1            CF2            CM3          
            NOTE
  
          1      1.8435275E+01  5.2674164E+01 -8.4458365E-01  0.0000000E+00  0.0000000E+00  0.0000000E+00  0.0000000E+00  4.5000000E+03  0.0000000E+00
          2      1.1896191E+01  3.7880652E+01 -8.1429443E-01  0.0000000E+00  0.0000000E+00  0.0000000E+00  0.0000000E+00  0.0000000E+00  0.0000000E+00
          3      6.2390023E+00  2.3940585E+01 -7.2144285E-01  0.0000000E+00  0.0000000E+00  0.0000000E+00  0.0000000E+00  0.0000000E+00  0.0000000E+00
          4      2.2269859E+00  1.1923088E+01 -5.6034403E-01  0.0000000E+00  0.0000000E+00  0.0000000E+00  0.0000000E+00  0.0000000E+00  0.0000000E+00
          5      2.7422104E-01  3.3020119E+00 -3.2266510E-01  0.0000000E+00  0.0000000E+00  0.0000000E+00  0.0000000E+00  0.0000000E+00  0.0000000E+00
          6      0.0000000E+00  0.0000000E+00  0.0000000E+00  1.0916337E-02 -4.5000032E+03  3.6704469E+05  0.0000000E+00  0.0000000E+00  0.0000000E+00


                                INCREMENT     4 SUMMARY


 TIME INCREMENT COMPLETED  1.875E-02,  FRACTION OF STEP COMPLETED  0.244    
 STEP TIME COMPLETED       0.244    ,  TOTAL TIME COMPLETED        0.244    
  
  
  
  
                                       N O D E   O U T P U T
  
  
  
  
   THE FOLLOWING TABLE IS PRINTED FOR ALL NODES
  
       NODE FOOT-  U1             U2             UR3            RF1            RF2            RM3            CF1            CF2            CM3          
            NOTE
  
          1      2.0255576E+01  5.4902941E+01 -8.8584874E-01  0.0000000E+00  0.0000000E+00  0.0000000E+00  0.0000000E+00  4.8750000E+03  0.0000000E+00
          2      1.3101311E+01  3.9572031E+01 -8.5449387E-01  0.0000000E+00  0.0000000E+00  0.0000000E+00  0.0000000E+00  0.0000000E+00  0.0000000E+00
          3      6.8957686E+00  2.5088938E+01 -7.5812859E-01  0.0000000E+00  0.0000000E+00  0.0000000E+00  0.0000000E+00  0.0000000E+00  0.0000000E+00
          4      2.4730155E+00  1.2543414E+01 -5.9013616E-01  0.0000000E+00  0.0000000E+00  0.0000000E+00  0.0000000E+00  0.0000000E+00  0.0000000E+00
          5      3.0613676E-01  3.4875227E+00 -3.4074880E-01  0.0000000E+00  0.0000000E+00  0.0000000E+00  0.0000000E+00  0.0000000E+00  0.0000000E+00
          6      0.0000000E+00  0.0000000E+00  0.0000000E+00  3.0582892E+00 -4.8762086E+03  3.8875502E+05  0.0000000E+00  0.0000000E+00  0.0000000E+00


                                INCREMENT     5 SUMMARY


 TIME INCREMENT COMPLETED  2.813E-02,  FRACTION OF STEP COMPLETED  0.272    
 STEP TIME COMPLETED       0.272    ,  TOTAL TIME COMPLETED        0.272    



                    E N E R G Y   O U T P U T


            THE FOLLOWING TABLE IS PRINTED FOR THE WHOLE MODEL AT T =   0.271875    


            APPROXIMATE ENERGY TOTALS -

            RECOVERABLE STRAIN ENERGY                    124317.    
            CONTACT CONSTRAINT ELASTIC ENERGY            0.00000    
             CONTACT CONSTRAINT ELASTIC NORMAL ENERGY    0.00000    
             CONTACT CONSTRAINT ELASTIC TANG.  ENERGY    0.00000    
            KINETIC ENERGY                               0.00000    
            EXTERNAL WORK                                138440.    
            CONTACT CONSTRAINT DISCONTINUITY WORK        0.00000    
            EXTERNAL WORK plus CONTACT DISCONT. WORK     138440.    
            PLASTIC DISSIPATION                          0.00000    
            CREEP DISSIPATION                            0.00000    
            VISCOUS DISSIPATION (IN DAMPERS ETC)         0.00000    
            STATIC DISSIPATION (STABILIZATION)           0.00000    
             INCLUDING CONTACT STAB. DISSIPATION         0.00000    
              CONTACT STABILIZATION NORMAL DISSIPATION   0.00000    
              CONTACT STABILIZATION TANG.  DISSIPATION   0.00000    
            ENERGY LOST AT IMPACTS                       0.00000    
            ENERGY TO CONTROL SPURIOUS MODES             0.00000    
            ENERGY LOST THROUGH QUIET BOUNDARIES         0.00000    
            ELECTROSTATIC ENERGY                         0.00000    
            ENERGY DUE TO ELECTRICAL CURRENT             0.00000    
            ENERGY LOST TO FRICTIONAL DISSIPATION        0.00000    
            BUCKLING DISSIPATION (FOR FRAME ELEMT.)      0.00000    
            DAMAGE DISSIPATION                           0.00000    
            TOTAL STRAIN ENERGY (STRESS POWER)           124317.    
            ENERGY BALANCE                              -14123.5    



                                                  E L E M E N T   O U T P U T





   THE FOLLOWING TABLE IS PRINTED FOR ALL ELEMENTS WITH TYPE B21 AT THE INTEGRATION POINTS

    ELEMENT  PT SEC FOOT-   S11         E11         
                 PT NOTE 

           1   1  1      5.1057E+04  1.7019E-03
           1   1  5     -4.6713E+04 -1.5571E-03
           2   1  1      1.5293E+05  5.0977E-03
           2   1  5     -1.4881E+05 -4.9605E-03
           3   1  1      2.6689E+05  8.8962E-03
           3   1  5     -2.6330E+05 -8.7767E-03
           4   1  1      3.9895E+05  1.3298E-02
           4   1  5     -3.9635E+05 -1.3212E-02
           5   1  1      5.4971E+05  1.8324E-02
           5   1  5     -5.4872E+05 -1.8291E-02



   THE FOLLOWING TABLE IS PRINTED FOR ALL ELEMENTS WITH TYPE B21 AT THE INTEGRATION POINTS

    ELEMENT  PT FOOT-       COORD1      COORD2      
                NOTE 

           1   1          28.84       49.83
           2   1          41.34       34.24
           3   1          55.34       20.02
           4   1          71.59       8.574
           5   1          90.18       1.874



   THE FOLLOWING TABLE IS PRINTED FOR ALL ELEMENTS WITH TYPE B21 AT THE INTEGRATION POINTS

    ELEMENT  PT FOOT-       SF1         SF2         SM1         
                NOTE 

           1   1          4344.      -3259.     -3.2590E+04
           2   1          4115.      -3540.     -1.0058E+05
           3   1          3584.      -4074.     -1.7673E+05
           4   1          2601.      -4763.     -2.6510E+05
           5   1          990.1      -5341.     -3.6614E+05
  
  
  
  
                                       N O D E   O U T P U T
  
  
  
  
   THE FOLLOWING TABLE IS PRINTED FOR ALL NODES
  
       NODE FOOT-  U1             U2             UR3            RF1            RF2            RM3            CF1            CF2            CM3          
            NOTE
  
          1      2.2841997E+01  5.7839800E+01 -9.4118357E-01  0.0000000E+00  0.0000000E+00  0.0000000E+00  0.0000000E+00  5.4375000E+03  0.0000000E+00
          2      1.4828214E+01  4.1827664E+01 -9.0859116E-01  0.0000000E+00  0.0000000E+00  0.0000000E+00  0.0000000E+00  0.0000000E+00  0.0000000E+00
          3      7.8489323E+00  2.6644918E+01 -8.0800268E-01  0.0000000E+00  0.0000000E+00  0.0000000E+00  0.0000000E+00  0.0000000E+00  0.0000000E+00
          4      2.8358838E+00  1.3399576E+01 -6.3126304E-01  0.0000000E+00  0.0000000E+00  0.0000000E+00  0.0000000E+00  0.0000000E+00  0.0000000E+00
          5      3.5402490E-01  3.7481815E+00 -3.6614899E-01  0.0000000E+00  0.0000000E+00  0.0000000E+00  0.0000000E+00  0.0000000E+00  0.0000000E+00
          6      0.0000000E+00  0.0000000E+00  0.0000000E+00  1.9864988E-01 -5.4375440E+03  4.1955629E+05  0.0000000E+00  0.0000000E+00  0.0000000E+00


                                INCREMENT     6 SUMMARY


 TIME INCREMENT COMPLETED  4.219E-02,  FRACTION OF STEP COMPLETED  0.314    
 STEP TIME COMPLETED       0.314    ,  TOTAL TIME COMPLETED        0.314    
  
  
  
  
                                       N O D E   O U T P U T
  
  
  
  
   THE FOLLOWING TABLE IS PRINTED FOR ALL NODES
  
       NODE FOOT-  U1             U2             UR3            RF1            RF2            RM3            CF1            CF2            CM3          
            NOTE
  
          1      2.6437294E+01  6.1529886E+01 -1.0131293E+00  0.0000000E+00  0.0000000E+00  0.0000000E+00  0.0000000E+00  6.2812500E+03  0.0000000E+00
          2      1.7250900E+01  4.4703233E+01 -9.7915733E-01  0.0000000E+00  0.0000000E+00  0.0000000E+00  0.0000000E+00  0.0000000E+00  0.0000000E+00
          3      9.2047397E+00  2.8666628E+01 -8.7366443E-01  0.0000000E+00  0.0000000E+00  0.0000000E+00  0.0000000E+00  0.0000000E+00  0.0000000E+00
          4      3.3613717E+00  1.4536919E+01 -6.8616104E-01  0.0000000E+00  0.0000000E+00  0.0000000E+00  0.0000000E+00  0.0000000E+00  0.0000000E+00
          5      4.2480209E-01  4.1022318E+00 -4.0060934E-01  0.0000000E+00  0.0000000E+00  0.0000000E+00  0.0000000E+00  0.0000000E+00  0.0000000E+00
          6      0.0000000E+00  0.0000000E+00  0.0000000E+00  1.0757294E+00 -6.2814875E+03  4.6208067E+05  0.0000000E+00  0.0000000E+00  0.0000000E+00


                                INCREMENT     7 SUMMARY


 TIME INCREMENT COMPLETED  6.328E-02,  FRACTION OF STEP COMPLETED  0.377    
 STEP TIME COMPLETED       0.377    ,  TOTAL TIME COMPLETED        0.377    
  
  
  
  
                                       N O D E   O U T P U T
  
  
  
  
   THE FOLLOWING TABLE IS PRINTED FOR ALL NODES
  
       NODE FOOT-  U1             U2             UR3            RF1            RF2            RM3            CF1            CF2            CM3          
            NOTE
  
          1      3.1187309E+01  6.5834632E+01 -1.1005609E+00  0.0000000E+00  0.0000000E+00  0.0000000E+00  0.0000000E+00  7.5468750E+03  0.0000000E+00
          2      2.0498790E+01  4.8131943E+01 -1.0654142E+00  0.0000000E+00  0.0000000E+00  0.0000000E+00  0.0000000E+00  0.0000000E+00  0.0000000E+00
          3      1.1062440E+01  3.1146815E+01 -9.5526479E-01  0.0000000E+00  0.0000000E+00  0.0000000E+00  0.0000000E+00  0.0000000E+00  0.0000000E+00
          4      4.1020190E+00  1.5979565E+01 -7.5607742E-01  0.0000000E+00  0.0000000E+00  0.0000000E+00  0.0000000E+00  0.0000000E+00  0.0000000E+00
          5      5.2780258E-01  4.5668192E+00 -4.4574904E-01  0.0000000E+00  0.0000000E+00  0.0000000E+00  0.0000000E+00  0.0000000E+00  0.0000000E+00
          6      0.0000000E+00  0.0000000E+00  0.0000000E+00  4.9285065E+00 -7.5479959E+03  5.1921545E+05  0.0000000E+00  0.0000000E+00  0.0000000E+00


                                INCREMENT     8 SUMMARY


 TIME INCREMENT COMPLETED  9.492E-02,  FRACTION OF STEP COMPLETED  0.472    
 STEP TIME COMPLETED       0.472    ,  TOTAL TIME COMPLETED        0.472    
  
  
  
  
                                       N O D E   O U T P U T
  
  
  
  
   THE FOLLOWING TABLE IS PRINTED FOR ALL NODES
  
       NODE FOOT-  U1             U2             UR3            RF1            RF2            RM3            CF1            CF2            CM3          
            NOTE
  
          1      3.7105428E+01  7.0470960E+01 -1.1991821E+00  0.0000000E+00  0.0000000E+00  0.0000000E+00  0.0000000E+00  9.4453125E+03  0.0000000E+00
          2      2.4631879E+01  5.1938041E+01 -1.1636318E+00  0.0000000E+00  0.0000000E+00  0.0000000E+00  0.0000000E+00  0.0000000E+00  0.0000000E+00
          3      1.3501149E+01  3.4009050E+01 -1.0506388E+00  0.0000000E+00  0.0000000E+00  0.0000000E+00  0.0000000E+00  0.0000000E+00  0.0000000E+00
          4      5.1140961E+00  1.7722811E+01 -8.4090325E-01  0.0000000E+00  0.0000000E+00  0.0000000E+00  0.0000000E+00  0.0000000E+00  0.0000000E+00
          5      6.7514425E-01  5.1557039E+00 -5.0282496E-01  0.0000000E+00  0.0000000E+00  0.0000000E+00  0.0000000E+00  0.0000000E+00  0.0000000E+00
          6      0.0000000E+00  0.0000000E+00  0.0000000E+00 -3.1475549E-04 -9.4453128E+03  5.9407388E+05  0.0000000E+00  0.0000000E+00  0.0000000E+00


                                INCREMENT     9 SUMMARY


 TIME INCREMENT COMPLETED  0.142    ,  FRACTION OF STEP COMPLETED  0.615    
 STEP TIME COMPLETED       0.615    ,  TOTAL TIME COMPLETED        0.615    
  
  
  
  
                                       N O D E   O U T P U T
  
  
  
  
   THE FOLLOWING TABLE IS PRINTED FOR ALL NODES
  
       NODE FOOT-  U1             U2             UR3            RF1            RF2            RM3            CF1            CF2            CM3          
            NOTE
  
          1      4.3914070E+01  7.5023155E+01 -1.3000975E+00  0.0000000E+00  0.0000000E+00  0.0000000E+00  0.0000000E+00  1.2292969E+04  0.0000000E+00
          2      2.9527480E+01  5.5822978E+01 -1.2655875E+00  0.0000000E+00  0.0000000E+00  0.0000000E+00  0.0000000E+00  0.0000000E+00  0.0000000E+00
          3      1.6514682E+01  3.7079116E+01 -1.1536123E+00  0.0000000E+00  0.0000000E+00  0.0000000E+00  0.0000000E+00  0.0000000E+00  0.0000000E+00
          4      6.4353699E+00  1.9708975E+01 -9.3769442E-01  0.0000000E+00  0.0000000E+00  0.0000000E+00  0.0000000E+00  0.0000000E+00  0.0000000E+00
          5      8.8027773E-01  5.8721773E+00 -5.7199607E-01  0.0000000E+00  0.0000000E+00  0.0000000E+00  0.0000000E+00  0.0000000E+00  0.0000000E+00
          6      0.0000000E+00  0.0000000E+00  0.0000000E+00 -2.9458605E-03 -1.2292973E+04  6.8949058E+05  0.0000000E+00  0.0000000E+00  0.0000000E+00


                                INCREMENT    10 SUMMARY


 TIME INCREMENT COMPLETED  0.214    ,  FRACTION OF STEP COMPLETED  0.828    
 STEP TIME COMPLETED       0.828    ,  TOTAL TIME COMPLETED        0.828    



                    E N E R G Y   O U T P U T


            THE FOLLOWING TABLE IS PRINTED FOR THE WHOLE MODEL AT T =   0.828223    


            APPROXIMATE ENERGY TOTALS -

            RECOVERABLE STRAIN ENERGY                    322510.    
            CONTACT CONSTRAINT ELASTIC ENERGY            0.00000    
             CONTACT CONSTRAINT ELASTIC NORMAL ENERGY    0.00000    
             CONTACT CONSTRAINT ELASTIC TANG.  ENERGY    0.00000    
            KINETIC ENERGY                               0.00000    
            EXTERNAL WORK                                338411.    
            CONTACT CONSTRAINT DISCONTINUITY WORK        0.00000    
            EXTERNAL WORK plus CONTACT DISCONT. WORK     338411.    
            PLASTIC DISSIPATION                          0.00000    
            CREEP DISSIPATION                            0.00000    
            VISCOUS DISSIPATION (IN DAMPERS ETC)         0.00000    
            STATIC DISSIPATION (STABILIZATION)           0.00000    
             INCLUDING CONTACT STAB. DISSIPATION         0.00000    
              CONTACT STABILIZATION NORMAL DISSIPATION   0.00000    
              CONTACT STABILIZATION TANG.  DISSIPATION   0.00000    
            ENERGY LOST AT IMPACTS                       0.00000    
            ENERGY TO CONTROL SPURIOUS MODES             0.00000    
            ENERGY LOST THROUGH QUIET BOUNDARIES         0.00000    
            ELECTROSTATIC ENERGY                         0.00000    
            ENERGY DUE TO ELECTRICAL CURRENT             0.00000    
            ENERGY LOST TO FRICTIONAL DISSIPATION        0.00000    
            BUCKLING DISSIPATION (FOR FRAME ELEMT.)      0.00000    
            DAMAGE DISSIPATION                           0.00000    
            TOTAL STRAIN ENERGY (STRESS POWER)           322510.    
            ENERGY BALANCE                              -15901.4    



                                                  E L E M E N T   O U T P U T





   THE FOLLOWING TABLE IS PRINTED FOR ALL ELEMENTS WITH TYPE B21 AT THE INTEGRATION POINTS

    ELEMENT  PT SEC FOOT-   S11         E11         
                 PT NOTE 

           1   1  1      5.5201E+04  1.8400E-03
           1   1  5     -3.8946E+04 -1.2982E-03
           2   1  1      1.6548E+05  5.5158E-03
           2   1  5     -1.4948E+05 -4.9825E-03
           3   1  1      3.2849E+05  1.0950E-02
           3   1  5     -3.1337E+05 -1.0446E-02
           4   1  1      5.8964E+05  1.9655E-02
           4   1  5     -5.7721E+05 -1.9240E-02
           5   1  1      9.8253E+05  3.2751E-02
           5   1  5     -9.7721E+05 -3.2574E-02



   THE FOLLOWING TABLE IS PRINTED FOR ALL ELEMENTS WITH TYPE B21 AT THE INTEGRATION POINTS

    ELEMENT  PT FOOT-       COORD1      COORD2      
                NOTE 

           1   1          53.04       69.34
           2   1          57.48       49.85
           3   1          64.06       31.02
           4   1          74.63       14.29
           5   1          90.58       3.359



   THE FOLLOWING TABLE IS PRINTED FOR ALL ELEMENTS WITH TYPE B21 AT THE INTEGRATION POINTS

    ELEMENT  PT FOOT-       SF1         SF2         SM1         
                NOTE 

           1   1         1.6255E+04  -3137.     -3.1382E+04
           2   1         1.6000E+04  -4221.     -1.0498E+05
           3   1         1.5115E+04  -6674.     -2.1395E+05
           4   1         1.2421E+04 -1.0822E+04 -3.8895E+05
           5   1          5316.     -1.5604E+04 -6.5325E+05
  
  
  
  
                                       N O D E   O U T P U T
  
  
  
  
   THE FOLLOWING TABLE IS PRINTED FOR ALL NODES
  
       NODE FOOT-  U1             U2             UR3            RF1            RF2            RM3            CF1            CF2            CM3          
            NOTE
  
          1      5.1145957E+01  7.9161898E+01 -1.3927456E+00  0.0000000E+00  0.0000000E+00  0.0000000E+00  0.0000000E+00  1.6564453E+04  0.0000000E+00
          2      3.4934873E+01  5.9518556E+01 -1.3613548E+00  0.0000000E+00  0.0000000E+00  0.0000000E+00  0.0000000E+00  0.0000000E+00  0.0000000E+00
          3      2.0032245E+01  4.0173526E+01 -1.2563430E+00  0.0000000E+00  0.0000000E+00  0.0000000E+00  0.0000000E+00  0.0000000E+00  0.0000000E+00
          4      8.0916603E+00  2.1863763E+01 -1.0423345E+00  0.0000000E+00  0.0000000E+00  0.0000000E+00  0.0000000E+00  0.0000000E+00  0.0000000E+00
          5      1.1604092E+00  6.7186830E+00 -6.5330380E-01  0.0000000E+00  0.0000000E+00  0.0000000E+00  0.0000000E+00  0.0000000E+00  0.0000000E+00
          6      0.0000000E+00  0.0000000E+00  0.0000000E+00 -1.6816622E-02 -1.6564480E+04  8.0929975E+05  0.0000000E+00  0.0000000E+00  0.0000000E+00


                                INCREMENT    11 SUMMARY


 TIME INCREMENT COMPLETED  0.172    ,  FRACTION OF STEP COMPLETED   1.00    
 STEP TIME COMPLETED        1.00    ,  TOTAL TIME COMPLETED         1.00    



                    E N E R G Y   O U T P U T


            THE FOLLOWING TABLE IS PRINTED FOR THE WHOLE MODEL AT T =    1.00000    


            APPROXIMATE ENERGY TOTALS -

            RECOVERABLE STRAIN ENERGY                    361856.    
            CONTACT CONSTRAINT ELASTIC ENERGY            0.00000    
             CONTACT CONSTRAINT ELASTIC NORMAL ENERGY    0.00000    
             CONTACT CONSTRAINT ELASTIC TANG.  ENERGY    0.00000    
            KINETIC ENERGY                               0.00000    
            EXTERNAL WORK                                377972.    
            CONTACT CONSTRAINT DISCONTINUITY WORK        0.00000    
            EXTERNAL WORK plus CONTACT DISCONT. WORK     377972.    
            PLASTIC DISSIPATION                          0.00000    
            CREEP DISSIPATION                            0.00000    
            VISCOUS DISSIPATION (IN DAMPERS ETC)         0.00000    
            STATIC DISSIPATION (STABILIZATION)           0.00000    
             INCLUDING CONTACT STAB. DISSIPATION         0.00000    
              CONTACT STABILIZATION NORMAL DISSIPATION   0.00000    
              CONTACT STABILIZATION TANG.  DISSIPATION   0.00000    
            ENERGY LOST AT IMPACTS                       0.00000    
            ENERGY TO CONTROL SPURIOUS MODES             0.00000    
            ENERGY LOST THROUGH QUIET BOUNDARIES         0.00000    
            ELECTROSTATIC ENERGY                         0.00000    
            ENERGY DUE TO ELECTRICAL CURRENT             0.00000    
            ENERGY LOST TO FRICTIONAL DISSIPATION        0.00000    
            BUCKLING DISSIPATION (FOR FRAME ELEMT.)      0.00000    
            DAMAGE DISSIPATION                           0.00000    
            TOTAL STRAIN ENERGY (STRESS POWER)           361856.    
            ENERGY BALANCE                              -16115.7    



                                                  E L E M E N T   O U T P U T





   THE FOLLOWING TABLE IS PRINTED FOR ALL ELEMENTS WITH TYPE B21 AT THE INTEGRATION POINTS

    ELEMENT  PT SEC FOOT-   S11         E11         
                 PT NOTE 

           1   1  1      5.2618E+04  1.7539E-03
           1   1  5     -3.2830E+04 -1.0943E-03
           2   1  1      1.5623E+05  5.2076E-03
           2   1  5     -1.3666E+05 -4.5555E-03
           3   1  1      3.2097E+05  1.0699E-02
           3   1  5     -3.0226E+05 -1.0075E-02
           4   1  1      6.0586E+05  2.0195E-02
           4   1  5     -5.9011E+05 -1.9670E-02
           5   1  1      1.0632E+06  3.5439E-02
           5   1  5     -1.0563E+06 -3.5209E-02



   THE FOLLOWING TABLE IS PRINTED FOR ALL ELEMENTS WITH TYPE B21 AT THE INTEGRATION POINTS

    ELEMENT  PT FOOT-       COORD1      COORD2      
                NOTE 

           1   1          56.79       71.42
           2   1          60.24       51.73
           3   1          65.75       32.55
           4   1          75.29       15.22
           5   1          90.68       3.638



   THE FOLLOWING TABLE IS PRINTED FOR ALL ELEMENTS WITH TYPE B21 AT THE INTEGRATION POINTS

    ELEMENT  PT FOOT-       SF1         SF2         SM1         
                NOTE 

           1   1         1.9788E+04  -2847.     -2.8483E+04
           2   1         1.9566E+04  -4065.     -9.7631E+04
           3   1         1.8707E+04  -6942.     -2.0774E+05
           4   1         1.5741E+04 -1.2144E+04 -3.9866E+05
           5   1          6921.     -1.8633E+04 -7.0648E+05
  
  
  
  
                                       N O D E   O U T P U T
  
  
  
  
   THE FOLLOWING TABLE IS PRINTED FOR ALL NODES
  
       NODE FOOT-  U1             U2             UR3            RF1            RF2            RM3            CF1            CF2            CM3          
            NOTE
  
          1      5.5362682E+01  8.1325778E+01 -1.4392862E+00  0.0000000E+00  0.0000000E+00  0.0000000E+00  0.0000000E+00  2.0000000E+04  0.0000000E+00
          2      3.8210937E+01  6.1522966E+01 -1.4107941E+00  0.0000000E+00  0.0000000E+00  0.0000000E+00  0.0000000E+00  0.0000000E+00  0.0000000E+00
          3      2.2277459E+01  4.1934082E+01 -1.3131313E+00  0.0000000E+00  0.0000000E+00  0.0000000E+00  0.0000000E+00  0.0000000E+00  0.0000000E+00
          4      9.2217814E+00  2.3171729E+01 -1.1053249E+00  0.0000000E+00  0.0000000E+00  0.0000000E+00  0.0000000E+00  0.0000000E+00  0.0000000E+00
          5      1.3678841E+00  7.2757505E+00 -7.0656342E-01  0.0000000E+00  0.0000000E+00  0.0000000E+00  0.0000000E+00  0.0000000E+00  0.0000000E+00
          6      0.0000000E+00  0.0000000E+00  0.0000000E+00 -2.8417591E-03 -2.0000000E+04  8.9283675E+05  0.0000000E+00  0.0000000E+00  0.0000000E+00


          THE ANALYSIS HAS BEEN COMPLETED



                              ANALYSIS COMPLETE
                              WITH      6 WARNING MESSAGES ON THE MSG FILE
                                        6 WARNINGS ARE FOR NEGATIVE EIGENVALUES



     JOB TIME SUMMARY
       USER TIME (SEC)      =   5.9000    
       SYSTEM TIME (SEC)    =   1.2000    
       TOTAL CPU TIME (SEC) =   7.1000    
       WALLCLOCK TIME (SEC) =          4
