 Abaqus/Standard 3DEXPERIENCE R2019x                  DATE 10-Feb-2020 TIME 10:59:44
 SUMMARY OF JOB INFORMATION:
 STEP  INC ATT SEVERE EQUIL TOTAL  TOTAL      STEP       INC OF       DOF    IF
               DISCON ITERS ITERS  TIME/    TIME/LPF    TIME/LPF    MONITOR RIKS
               ITERS               FREQ
   1     1   1     0     9     9  0.200      0.200      0.2000    
   1     2   1U    0     4     4  0.200      0.200      0.2000    
   1     2   2U    0     9     9  0.200      0.200      0.05000   
   1     2   3     0     2     2  0.213      0.213      0.01250   
   1     3   1     0     2     2  0.225      0.225      0.01250   
   1     4   1     0     1     1  0.244      0.244      0.01875   
   1     5   1     0     2     2  0.272      0.272      0.02813   
   1     6   1     0     2     2  0.314      0.314      0.04219   
   1     7   1     0     2     2  0.377      0.377      0.06328   
   1     8   1     0     4     4  0.472      0.472      0.09492   
   1     9   1     0     4     4  0.615      0.615      0.1424    
   1    10   1     0     4     4  0.828      0.828      0.2136    
   1    11   1     0     4     4  1.00       1.00       0.1718    
                          
 THE ANALYSIS HAS COMPLETED SUCCESSFULLY
